    1 'WT3G0'  1       1700    3.0   0.02  0.2   0.02  0.5   0.9  1.22  
         0.02  0.8  20.0 
         0.0   0.0  0.1  -0.1 /
    1 'AERD0'  1    1    3  13.0  1.0   1.25  0.3   10.3  1.25 
         0.5176   116.0  0.4  5.0  21.0  0.0068  0.08  0.035/
    1 'WT3T0'  1   2.5,  0.5  0.3  1.0  0.01/
    1 'WT3E0'  1   0  0  0
         0.0,  0.02,  1.0,  18.0,  0.05,  5.0,  -0.5,  0.5, 0.15,  0.05,  
         0.1,  0.9,  1.1,  40.0,  -0.5,  1.45, 
         60.0,  0.0,  0.0,  0.0,  0.1,  20.0,  0.05,  0.0, 0.0, 0.0
         -0.45,  0.45,  0.05,  0.01,  1.12,  1.1/
    1 'WT3P0'  1   0, 60.1,  150.0,  25.0,  0.2,  0.0, 0.0, 0.0,  0.0, 0.0,  0.1,  90.0,  0.0, 90.0  1.0/
     2 'GENROU' 1     10.200      0.30000E-01   1.5000      0.40000E-01
          4.2000       0.0000      0.10000E-01  0.69000E-02  0.31000E-02
         0.80000E-03  0.20000E-02  0.12500E-02   0.0000       0.0000    /
     2 'IEEET1' 1    0.10000E-01   20.000      0.20000E-01   10.000    
         -10.000       1.0000       1.5000      0.40000E-01  0.70000    
          0.0000       1.6500      0.12000       2.2000      0.54000    /
     2 'IEEEG1' 1          0           0        20.000       0.0000    
          0.0000      0.02000      0.10000     -0.10000      1.00000    
          0.0000       0.0000       0.3000       0.0000      8.3
          0.7000       0.0      999.00       0.0000       0.0000    
          999.00       0.0000       0.0000    /
     0 'IEELAL' *     0.4000       0.0000      0.60000      0.4000    
          0.0000      0.60000       2.0000      -1.8000       2.0000    
          1.0000       0.0000       2.0000       1.0000       0.0000    /
"Vsc-Project1  "       "VSCHVDCP0  " /    
"Vsc-Project1  "       "VSCHVDCC0  "       "vsc1  "        1000
          "Pac_control"    0.0     20     0.0     0.01     1.1    -1.1
          "Vac_control"    0.0     20     0.0     0.01     1.1    -1.1  /
"Vsc-Project1  "       "VSCHVDCC0  "       "vsc2  "        1000
          "Vdc_control"    10.0     0.0001     0.0     0.01     1.1    -1.1
          "Qac_control"    0.0     20     0.0     0.01     0.8    -0.8  /