    102 'GENROU' 1     8.3750      0.19980      0.20000      0.19980
          2.6360       0.0000       1.8548       1.8540      0.25680
         0.35680      0.15000      0.10000      0.30000E-01  0.40000    /
    102 'SEXS'   1    0.10000       10.000       100.00      0.10000
          0.0000       6.0000    /
    102 'IEESGO' 1     0.0000       0.0000      0.40000E-01  0.30000
          7.0000       0.0000       20.000      0.70000       0.0000
         0.91000       0.0000    /
    104 'GENROU' 1     8.4500      0.47000E-01  0.93800      0.47000E-01
          2.7780       0.0000       2.0811       2.0000      0.30050
         0.41730      0.15000      0.10000      0.30000E-01  0.40000    /
    104 'SEXS'   1    0.10000       10.000       100.00      0.10000
          0.0000       6.0000    /
    104 'IEESGO' 1     0.0000       0.0000      0.40000E-01  0.30000
          7.0000       0.0000       20.000      0.70000       0.0000
          1.0400       0.0000    /
    105 'GENROU' 1     8.4500      0.47000E-01  0.93800      0.47000E-01
          2.7780       0.0000       2.0811       2.0000      0.30050
         0.41730      0.15000      0.10000      0.30000E-01  0.40000    /
    105 'SEXS'   1    0.10000       10.000       100.00      0.10000
          0.0000       6.0000    /
    105 'IEESGO' 1     0.0000       0.0000      0.40000E-01  0.30000
          7.0000       0.0000       20.000      0.70000       0.0000
          1.0400       0.0000    /
    111 'GENROU' 1     7.5000      0.50000E-01  0.93800      0.50000E-01
          4.4300       0.0000       1.8929       1.8000      0.27510
         0.37510      0.15000      0.10000      0.30000E-01  0.40000    /
    111 'SEXS'   1    0.10000       10.000       100.00      0.10000
          0.0000       6.0000    /
    111 'IEESGO' 1     0.0000       0.0000      0.40000E-01  0.30000
          7.0000       0.0000       20.000      0.70000       0.0000
          1.1250       0.0000    /
    112 'GENROU' 1     7.5000      0.50000E-01  0.93800      0.50000E-01
          4.4300       0.0000       1.8929       1.8000      0.27510
         0.37510      0.15000      0.10000      0.30000E-01  0.40000    /
    112 'SEXS'   1    0.10000       10.000       100.00      0.10000
          0.0000       6.0000    /
    112 'IEESGO' 1     0.0000       0.0000      0.40000E-01  0.30000
          7.0000       0.0000       20.000      0.70000       0.0000
          1.1250       0.0000    /
    114 'GENROU' 1     7.5000      0.50000E-01  0.93800      0.50000E-01
          4.4300       0.0000       1.8929       1.8000      0.27510
         0.37510      0.15000      0.10000      0.30000E-01  0.40000    /
    114 'SEXS'   1    0.10000       10.000       100.00      0.10000
          0.0000       6.0000    /
    114 'IEESGO' 1     0.0000       0.0000      0.40000E-01  0.30000
          7.0000       0.0000       20.000      0.70000       0.0000
         0.70800       0.0000    /
    122 'GENROU' 1     8.4500      0.47000E-01  0.93800      0.47000E-01
          2.7780       0.0000       2.0811       2.0000      0.30050
         0.41730      0.15000      0.10000      0.30000E-01  0.40000    /
    122 'SEXS'   1    0.10000       10.000       100.00      0.10000
          0.0000       6.0000    /
    122 'IEESGO' 1     0.0000       0.0000      0.40000E-01  0.30000
          7.0000       0.0000       20.000      0.70000       0.0000
          1.1200       0.0000    /
    128 'GENROU' 1     7.5000      0.50000E-01  0.93800      0.50000E-01
          4.4300       0.0000       1.8929       1.8000      0.27510
         0.37510      0.15000      0.10000      0.30000E-01  0.40000    /
    128 'SEXS'   1    0.10000       10.000       100.00      0.10000
          0.0000       6.0000    /
    128 'IEESGO' 1     0.0000       0.0000      0.40000E-01  0.30000
          7.0000       0.0000       20.000      0.70000       0.0000
          1.1500       0.0000    /
    129 'GENROU' 1     7.5000      0.50000E-01  0.93800      0.50000E-01
          4.4300       0.0000       1.8929       1.8000      0.27510
         0.37510      0.15000      0.10000      0.30000E-01  0.40000    /
    129 'SEXS'   1    0.10000       10.000       100.00      0.10000
          0.0000       6.0000    /
    129 'IEESGO' 1     0.0000       0.0000      0.40000E-01  0.30000
          7.0000       0.0000       20.000      0.70000       0.0000
          1.1500       0.0000    /
    139 'GENROU' 1     7.5000      0.50000E-01  0.93800      0.50000E-01
          4.4300       0.0000       1.8929       1.8000      0.27510
         0.37510      0.15000      0.10000      0.30000E-01  0.40000    /
    139 'SEXS'   1    0.10000       10.000       100.00      0.10000
          0.0000       6.0000    /
    139 'IEESGO' 1     0.0000       0.0000      0.40000E-01  0.30000
          7.0000       0.0000       20.000      0.70000       0.0000
         0.87000       0.0000    /
    140 'GENROU' 1     8.4500      0.47000E-01  0.93800      0.47000E-01
          2.7780       0.0000       2.0811       2.0000      0.30050
         0.41730      0.15000      0.10000      0.30000E-01  0.40000    /
    140 'SEXS'   1    0.10000       10.000       100.00      0.10000
          0.0000       6.0000    /
    140 'IEESGO' 1     0.0000       0.0000      0.40000E-01  0.30000
          7.0000       0.0000       20.000      0.70000       0.0000
          1.1100       0.0000    /
    143 'GENROU' 1     8.4500      0.47000E-01  0.93800      0.47000E-01
          2.7780       0.0000       2.0811       2.0000      0.30050
         0.41730      0.15000      0.10000      0.30000E-01  0.40000    /
    143 'SEXS'   1    0.10000       10.000       100.00      0.10000
          0.0000       6.0000    /
    143 'IEESGO' 1     0.0000       0.0000      0.40000E-01  0.30000
          7.0000       0.0000       20.000      0.70000       0.0000
         0.86000       0.0000    /
    145 'GENROU' 1     8.4500      0.47000E-01  0.93800      0.47000E-01
          2.7780       0.0000       2.0811       2.0000      0.30050
         0.41730      0.15000      0.10000      0.30000E-01  0.40000    /
    145 'SEXS'   1    0.10000       10.000       100.00      0.10000
          0.0000       6.0000    /
    145 'IEESGO' 1     0.0000       0.0000      0.40000E-01  0.30000
          7.0000       0.0000       20.000      0.70000       0.0000
          1.1500       0.0000    /
    156 'GENROU' 1     8.4500      0.47000E-01  0.93800      0.47000E-01
          2.7780       0.0000       2.0811       2.0000      0.30050
         0.41730      0.15000      0.10000      0.30000E-01  0.40000    /
    156 'SEXS'   1    0.10000       10.000       100.00      0.10000
          0.0000       6.0000    /
    156 'IEESGO' 1     0.0000       0.0000      0.40000E-01  0.30000
          7.0000       0.0000       20.000      0.70000       0.0000
          1.0300       0.0000    /
    170 'GENROU' 1     7.5000      0.50000E-01  0.93800      0.50000E-01
          4.4300       0.0000       1.8929       1.8000      0.27510
         0.37510      0.15000      0.10000      0.30000E-01  0.40000    /
    170 'SEXS'   1    0.10000       10.000       100.00      0.10000
          0.0000       6.0000    /
    170 'IEESGO' 1     0.0000       0.0000      0.40000E-01  0.30000
          7.0000       0.0000       20.000      0.70000       0.0000
          1.1400       0.0000    /
    175 'GENROU' 1     8.4500      0.47000E-01  0.93800      0.47000E-01
          2.7780       0.0000       2.0811       2.0000      0.30050
         0.41730      0.15000      0.10000      0.30000E-01  0.40000    /
    175 'SEXS'   1    0.10000       10.000       100.00      0.10000
          0.0000       6.0000    /
    175 'IEESGO' 1     0.0000       0.0000      0.40000E-01  0.30000
          7.0000       0.0000       20.000      0.70000       0.0000
          1.1600       0.0000    /
    178 'GENROU' 1     7.5000      0.50000E-01  0.93800      0.50000E-01
          4.4300       0.0000       1.8929       1.8000      0.27510
         0.37510      0.15000      0.10000      0.30000E-01  0.40000    /
    178 'SEXS'   1    0.10000       10.000       100.00      0.10000
          0.0000       6.0000    /
    178 'IEESGO' 1     0.0000       0.0000      0.40000E-01  0.30000
          7.0000       0.0000       20.000      0.70000       0.0000
          1.0900       0.0000    /
    183 'GENROU' 1     7.5000      0.50000E-01  0.93800      0.50000E-01
          4.4300       0.0000       1.8929       1.8000      0.27510
         0.37510      0.15000      0.10000      0.30000E-01  0.40000    /
    183 'SEXS'   1    0.10000       10.000       100.00      0.10000
          0.0000       6.0000    /
    183 'IEESGO' 1     0.0000       0.0000      0.40000E-01  0.30000
          7.0000       0.0000       20.000      0.70000       0.0000
          1.1400       0.0000    /
    187 'GENROU' 1     7.5000      0.50000E-01  0.93800      0.50000E-01
          4.4300       0.0000       1.8929       1.8000      0.27510
         0.37510      0.15000      0.10000      0.30000E-01  0.40000    /
    187 'SEXS'   1    0.10000       10.000       100.00      0.10000
          0.0000       6.0000    /
    187 'IEESGO' 1     0.0000       0.0000      0.40000E-01  0.30000
          7.0000       0.0000       20.000      0.70000       0.0000
          1.1600       0.0000    /
    191 'GENROU' 1     7.5000      0.50000E-01  0.93800      0.50000E-01
          4.4300       0.0000       1.8929       1.8000      0.27510
         0.37510      0.15000      0.10000      0.30000E-01  0.40000    /
    191 'SEXS'   1    0.10000       10.000       100.00      0.10000
          0.0000       6.0000    /
    191 'IEESGO' 1     0.0000       0.0000      0.40000E-01  0.30000
          7.0000       0.0000       20.000      0.70000       0.0000
          1.1500       0.0000    /
    193 'GENROU' 1     7.5000      0.50000E-01  0.93800      0.50000E-01
          4.4300       0.0000       1.8929       1.8000      0.27510
         0.37510      0.15000      0.10000      0.30000E-01  0.40000    /
    193 'SEXS'   1    0.10000       10.000       100.00      0.10000
          0.0000       6.0000    /
    193 'IEESGO' 1     0.0000       0.0000      0.40000E-01  0.30000
          7.0000       0.0000       20.000      0.70000       0.0000
          1.1500       0.0000    /
    194 'GENCLS' 1     6.0000       0.0000    /
    202 'GENCLS' 1     6.0000       0.0000    /
    302 'GENCLS' 1     6.0000       0.0000    /
    311 'GENROU' 1     7.5000      0.50000E-01  0.93800      0.50000E-01
          4.4300       0.0000       1.8929       1.8000      0.27510
         0.37510      0.15000      0.10000      0.30000E-01  0.40000    /
    311 'SEXS'   1    0.10000       10.000       100.00      0.10000
          0.0000       6.0000    /
    311 'IEESGO' 1     0.0000       0.0000      0.40000E-01  0.30000
          7.0000       0.0000       20.000      0.70000       0.0000
          1.0300       0.0000    /
    312 'GENROU' 1     8.4500      0.47000E-01  0.93800      0.47000E-01
          2.7780       0.0000       2.0811       2.0000      0.30050
         0.41730      0.15000      0.10000      0.30000E-01  0.40000    /
    312 'SEXS'   1    0.10000       10.000       100.00      0.10000
          0.0000       6.0000    /
    312 'IEESGO' 1     0.0000       0.0000      0.40000E-01  0.30000
          7.0000       0.0000       20.000      0.70000       0.0000
         0.87000       0.0000    /
    313 'GENROU' 1     7.5000      0.50000E-01  0.93800      0.50000E-01
          4.4300       0.0000       1.8929       1.8000      0.27510
         0.37510      0.15000      0.10000      0.30000E-01  0.40000    /
    313 'SEXS'   1    0.10000       10.000       100.00      0.10000
          0.0000       6.0000    /
    313 'IEESGO' 1     0.0000       0.0000      0.40000E-01  0.30000
          7.0000       0.0000       20.000      0.70000       0.0000
          1.2500       0.0000    /
    314 'GENROU' 1     7.5000      0.50000E-01  0.93800      0.50000E-01
          4.4300       0.0000       1.8929       1.8000      0.27510
         0.37510      0.15000      0.10000      0.30000E-01  0.40000    /
    314 'SEXS'   1    0.10000       10.000       100.00      0.10000
          0.0000       6.0000    /
    314 'IEESGO' 1     0.0000       0.0000      0.40000E-01  0.30000
          7.0000       0.0000       20.000      0.70000       0.0000
         0.91000       0.0000    /
    315 'GENROU' 1     7.5000      0.50000E-01  0.93800      0.50000E-01
          4.4300       0.0000       1.8929       1.8000      0.27510
         0.37510      0.15000      0.10000      0.30000E-01  0.40000    /
    315 'SEXS'   1    0.10000       10.000       100.00      0.10000
          0.0000       6.0000    /
    315 'IEESGO' 1     0.0000       0.0000      0.40000E-01  0.30000
          7.0000       0.0000       20.000      0.70000       0.0000
          1.1100       0.0000    /
    316 'GENROU' 1     8.4500      0.47000E-01  0.93800      0.47000E-01
          2.7780       0.0000       2.0811       2.0000      0.30050
         0.41730      0.15000      0.10000      0.30000E-01  0.40000    /
    316 'SEXS'   1    0.10000       10.000       100.00      0.10000
          0.0000       6.0000    /
    316 'IEESGO' 1     0.0000       0.0000      0.40000E-01  0.30000
          7.0000       0.0000       20.000      0.70000       0.0000
         0.99000       0.0000    /
    317 'GENROU' 1     7.5000      0.50000E-01  0.93800      0.50000E-01
          4.4300       0.0000       1.8929       1.8000      0.27510
         0.37510      0.15000      0.10000      0.30000E-01  0.40000    /
    317 'SEXS'   1    0.10000       10.000       100.00      0.10000
          0.0000       6.0000    /
    317 'IEESGO' 1     0.0000       0.0000      0.40000E-01  0.30000
          7.0000       0.0000       20.000      0.70000       0.0000
          1.0300       0.0000    /
    318 'GENROU' 1     7.5000      0.50000E-01  0.93800      0.50000E-01
          4.4300       0.0000       1.8929       1.8000      0.27510
         0.37510      0.15000      0.10000      0.30000E-01  0.40000    /
    318 'SEXS'   1    0.10000       10.000       100.00      0.10000
          0.0000       6.0000    /
    318 'IEESGO' 1     0.0000       0.0000      0.40000E-01  0.30000
          7.0000       0.0000       20.000      0.70000       0.0000
          1.0800       0.0000    /
    319 'GENROU' 1     7.5000      0.50000E-01  0.93800      0.50000E-01
          4.4300       0.0000       1.8929       1.8000      0.27510
         0.37510      0.15000      0.10000      0.30000E-01  0.40000    /
    319 'SEXS'   1    0.10000       10.000       100.00      0.10000
          0.0000       6.0000    /
    319 'IEESGO' 1     0.0000       0.0000      0.40000E-01  0.30000
          7.0000       0.0000       20.000      0.70000       0.0000
          1.1400       0.0000    /
    320 'GENROU' 1     7.5000      0.50000E-01  0.93800      0.50000E-01
          4.4300       0.0000       1.8929       1.8000      0.27510
         0.37510      0.15000      0.10000      0.30000E-01  0.40000    /
    320 'SEXS'   1    0.10000       10.000       100.00      0.10000
          0.0000       6.0000    /
    320 'IEESGO' 1     0.0000       0.0000      0.40000E-01  0.30000
          7.0000       0.0000       20.000      0.70000       0.0000
          1.0000       0.0000    /
    321 'GENROU' 1     7.5000      0.50000E-01  0.93800      0.50000E-01
          4.4300       0.0000       1.8929       1.8000      0.27510
         0.37510      0.15000      0.10000      0.30000E-01  0.40000    /
    321 'SEXS'   1    0.10000       10.000       100.00      0.10000
          0.0000       6.0000    /
    321 'IEESGO' 1     0.0000       0.0000      0.40000E-01  0.30000
          7.0000       0.0000       20.000      0.70000       0.0000
         0.77000       0.0000    /
    322 'GENROU' 1     7.5000      0.50000E-01  0.93800      0.50000E-01
          4.4300       0.0000       1.8929       1.8000      0.27510
         0.37510      0.15000      0.10000      0.30000E-01  0.40000    /
    322 'SEXS'   1    0.10000       10.000       100.00      0.10000
          0.0000       6.0000    /
    322 'IEESGO' 1     0.0000       0.0000      0.40000E-01  0.30000
          7.0000       0.0000       20.000      0.70000       0.0000
          1.1400       0.0000    /
    323 'GENROU' 1     7.5000      0.50000E-01  0.93800      0.50000E-01
          4.4300       0.0000       1.8929       1.8000      0.27510
         0.37510      0.15000      0.10000      0.30000E-01  0.40000    /
    323 'SEXS'   1    0.10000       10.000       100.00      0.10000
          0.0000       6.0000    /
    323 'IEESGO' 1     0.0000       0.0000      0.40000E-01  0.30000
          7.0000       0.0000       20.000      0.70000       0.0000
          1.1500       0.0000    /
    324 'GENROU' 1     8.4500      0.47000E-01  0.93800      0.47000E-01
          2.7780       0.0000       2.0811       2.0000      0.30050
         0.41730      0.15000      0.10000      0.30000E-01  0.40000    /
    324 'SEXS'   1    0.10000       10.000       100.00      0.10000
          0.0000       6.0000    /
    324 'IEESGO' 1     0.0000       0.0000      0.40000E-01  0.30000
          7.0000       0.0000       20.000      0.70000       0.0000
          1.0400       0.0000    /
    325 'GENROU' 1     7.5000      0.50000E-01  0.93800      0.50000E-01
          4.4300       0.0000       1.8929       1.8000      0.27510
         0.37510      0.15000      0.10000      0.30000E-01  0.40000    /
    325 'SEXS'   1    0.10000       10.000       100.00      0.10000
          0.0000       6.0000    /
    325 'IEESGO' 1     0.0000       0.0000      0.40000E-01  0.30000
          7.0000       0.0000       20.000      0.70000       0.0000
         0.82000       0.0000    /
      0 'IEELAL' *    0.40000       0.0000      0.60000      0.40000
          0.0000      0.60000       2.0000      -1.8000       2.0000
          1.0000       0.0000       2.0000       1.0000       0.0000    /
 '青银直流负  '     'CDC4T '        5.0000       5.0000      0.10000
         0.10000      0.60000      0.65000       60.000       528.00
         0.95000      0.20000       100.00       1000.0      0.30000
         0.30000       100.00       200.00       1500.0       400.00
          3000.0       600.00       4000.0      0.10000    /
 '青银直流正  '     'CDC4T '        5.0000       5.0000      0.10000
         0.10000      0.60000      0.65000       60.000       528.00
         0.95000      0.20000       100.00       1000.0      0.30000
         0.30000       100.00       200.00       1500.0       400.00
          3000.0       600.00       4000.0      0.10000    /
 '扎青直流低端'     'CDC4T '        5.0000       5.0000      0.10000
         0.10000      0.60000      0.65000       60.000       640.00
         0.95000      0.20000       150.00       1000.0      0.30000
         0.30000       100.00       200.00       2000.0       500.00
          4000.0       700.00       7000.0      0.10000    /
 '扎青直流高端'     'CDC4T '        5.0000       5.0000      0.10000
         0.10000      0.60000      0.65000       60.000       640.00
         0.95000      0.20000       150.00       1000.0      0.30000
         0.30000       100.00       200.00       2000.0       500.00
          4000.0       700.00       7000.0      0.10000    /
 '昭沂直流低端'     'CDC4T '        5.0000       5.0000      0.10000
         0.10000      0.60000      0.65000       60.000       640.00
         0.95000      0.20000       150.00       1000.0      0.30000
         0.30000       100.00       200.00       2000.0       500.00
          4000.0       700.00       7000.0      0.10000    /
 '昭沂直流高端'     'CDC4T '        5.0000       5.0000      0.10000
         0.10000      0.60000      0.65000       60.000       640.00
         0.95000      0.20000       150.00       1000.0      0.30000
         0.30000       100.00       200.00       2000.0       500.00
          4000.0       700.00       7000.0      0.10000    /
