0,   100.00, 33, 0, 1, 60.00     / PSS(R)E-33.5    FRI, DEC 22 2017  12:51
BENCHMARK FOR SENDING POWER GRID BASED ON NORTHWEST CHINA
SHANDONG UNIVERSITY, LI CHANGGANG/PENG PEIQI, 2017/12/22
     1,'甘白银      ', 800.0000,1,   1,   1,   1,1.03093, -16.6979,1.10000,0.90000,1.10000,0.90000
     2,'甘常乐厂    ', 800.0000,1,   1,   1,   1,0.99908,  13.3298,1.10000,0.90000,1.10000,0.90000
     3,'甘崇信      ', 800.0000,1,   1,   1,   1,1.02266, -21.7254,1.10000,0.90000,1.10000,0.90000
     4,'甘敦煌      ', 800.0000,1,   1,   1,   1,1.00210,  15.6399,1.10000,0.90000,1.10000,0.90000
     7,'甘河西      ', 800.0000,1,   1,   1,   1,0.99256, -10.7135,1.10000,0.90000,1.10000,0.90000
     8,'甘景泰厂    ', 800.0000,1,   1,   1,   1,1.02834, -16.3557,1.10000,0.90000,1.10000,0.90000
     9,'甘酒泉      ', 800.0000,1,   1,   1,   1,1.01187,   4.6772,1.10000,0.90000,1.10000,0.90000
    10,'甘酒泉换    ', 800.0000,1,   1,   1,   1,1.00386,  12.3417,1.10000,0.90000,1.10000,0.90000
    11,'甘兰州东    ', 800.0000,1,   1,   1,   1,1.03330, -18.0276,1.10000,0.90000,1.10000,0.90000
    12,'甘麦积      ', 800.0000,1,   1,   1,   1,1.03158, -21.9789,1.10000,0.90000,1.10000,0.90000
    13,'甘平凉      ', 800.0000,1,   1,   1,   1,1.02361, -21.9440,1.10000,0.90000,1.10000,0.90000
    14,'甘平凉2     ', 800.0000,1,   1,   1,   1,1.02305, -21.7556,1.10000,0.90000,1.10000,0.90000
    15,'甘桥湾      ', 800.0000,1,   1,   1,   1,1.00538,  12.9847,1.10000,0.90000,1.10000,0.90000
    16,'甘沙州      ', 800.0000,1,   1,   1,   1,1.01393,  16.4421,1.10000,0.90000,1.10000,0.90000
    17,'甘武胜      ', 800.0000,1,   1,   1,   1,1.02027, -13.7825,1.10000,0.90000,1.10000,0.90000
    18,'宁六盘山    ', 800.0000,1,   1,   1,   1,1.02304, -22.0098,1.10000,0.90000,1.10000,0.90000
    19,'宁大坝      ', 800.0000,1,   1,   1,   1,1.01738, -20.9719,1.10000,0.90000,1.10000,0.90000
    20,'宁方家庄    ', 800.0000,1,   1,   1,   1,1.00997, -20.8795,1.10000,0.90000,1.10000,0.90000
    21,'宁国华      ', 800.0000,1,   1,   1,   1,1.01018, -20.9470,1.10000,0.90000,1.10000,0.90000
    22,'宁贺兰山    ', 800.0000,1,   1,   1,   1,1.01751, -21.0787,1.10000,0.90000,1.10000,0.90000
    23,'宁黄河      ', 800.0000,1,   1,   1,   1,1.02040, -20.7774,1.10000,0.90000,1.10000,0.90000
    24,'宁宁东      ', 800.0000,1,   1,   1,   1,1.00772, -22.9685,1.10000,0.90000,1.10000,0.90000
    25,'宁灵武      ', 800.0000,1,   1,   1,   1,1.00780, -23.0154,1.10000,0.90000,1.10000,0.90000
    26,'宁杞乡      ', 800.0000,1,   1,   1,   1,1.02071, -20.7908,1.10000,0.90000,1.10000,0.90000
    27,'宁沙湖      ', 800.0000,1,   1,   1,   1,1.01068, -22.8102,1.10000,0.90000,1.10000,0.90000
    28,'宁沙坡头    ', 800.0000,1,   1,   1,   1,1.01959, -21.0983,1.10000,0.90000,1.10000,0.90000
    30,'宁太阳山    ', 800.0000,1,   1,   1,   1,1.01021, -22.0920,1.10000,0.90000,1.10000,0.90000
    32,'宁银川东    ', 800.0000,1,   1,   1,   1,1.00749, -23.0847,1.10000,0.90000,1.10000,0.90000
    33,'宁永利      ', 800.0000,1,   1,   1,   1,1.00994, -21.8732,1.10000,0.90000,1.10000,0.90000
    34,'宁鸳鸯湖    ', 800.0000,1,   1,   1,   1,1.01118, -19.9324,1.10000,0.90000,1.10000,0.90000
    35,'宁枣泉      ', 800.0000,1,   1,   1,   1,1.01130, -20.0437,1.10000,0.90000,1.10000,0.90000
    36,'宁银星      ', 800.0000,1,   1,   1,   1,1.00984, -21.8129,1.10000,0.90000,1.10000,0.90000
    37,'宁中宁      ', 800.0000,1,   1,   1,   1,1.02067, -20.6498,1.10000,0.90000,1.10000,0.90000
    38,'青柴达木    ', 800.0000,1,   1,   1,   1,1.01396,   9.4971,1.10000,0.90000,1.10000,0.90000
    39,'青德令哈    ', 800.0000,1,   1,   1,   1,1.01012,   1.0233,1.10000,0.90000,1.10000,0.90000
    40,'青官亭      ', 800.0000,1,   1,   1,   1,1.02527, -12.6440,1.10000,0.90000,1.10000,0.90000
    41,'青海西      ', 800.0000,1,   1,   1,   1,1.01052,   1.0222,1.10000,0.90000,1.10000,0.90000
    42,'青海南      ', 800.0000,1,   1,   1,   1,1.03703,  -7.5094,1.10000,0.90000,1.10000,0.90000
    43,'青拉西瓦    ', 800.0000,1,   1,   1,   1,1.00926,  -5.4804,1.10000,0.90000,1.10000,0.90000
    44,'青日月山    ', 800.0000,1,   1,   1,   1,1.03043,  -7.6252,1.10000,0.90000,1.10000,0.90000
    45,'青格尔木    ', 800.0000,1,   1,   1,   1,1.01379,   9.6479,1.10000,0.90000,1.10000,0.90000
    46,'青塔拉      ', 800.0000,1,   1,   1,   1,1.03684,  -7.2830,1.10000,0.90000,1.10000,0.90000
    47,'青西宁      ', 800.0000,1,   1,   1,   1,1.02891,  -8.8847,1.10000,0.90000,1.10000,0.90000
    48,'青西宁北    ', 800.0000,1,   1,   1,   1,1.02556, -11.8635,1.10000,0.90000,1.10000,0.90000
    49,'青羊曲      ', 800.0000,1,   1,   1,   1,1.03592,  -7.0385,1.10000,0.90000,1.10000,0.90000
    50,'青佑宁      ', 800.0000,1,   1,   1,   1,1.02647, -11.4337,1.10000,0.90000,1.10000,0.90000
    51,'青鱼卡      ', 800.0000,1,   1,   1,   1,1.01796,  11.9190,1.10000,0.90000,1.10000,0.90000
    52,'陕宝鸡2     ', 800.0000,1,   1,   1,   1,1.02323, -24.9540,1.10000,0.90000,1.10000,0.90000
    53,'陕宝鸡      ', 800.0000,1,   1,   1,   1,1.02362, -25.0846,1.10000,0.90000,1.10000,0.90000
    54,'陕北换      ', 800.0000,1,   1,   1,   1,1.01905, -18.6038,1.10000,0.90000,1.10000,0.90000
    55,'陕彬长      ', 800.0000,1,   1,   1,   1,1.02592, -24.7184,1.10000,0.90000,1.10000,0.90000
    56,'陕店塔      ', 800.0000,1,   1,   1,   1,1.01735, -17.9031,1.10000,0.90000,1.10000,0.90000
    57,'陕定靖      ', 800.0000,1,   1,   1,   1,1.02314, -20.9825,1.10000,0.90000,1.10000,0.90000
    58,'陕富县      ', 800.0000,1,   1,   1,   1,1.02044, -22.9627,1.10000,0.90000,1.10000,0.90000
    59,'陕洛川      ', 800.0000,1,   1,   1,   1,1.02101, -23.4616,1.10000,0.90000,1.10000,0.90000
    60,'陕乾县      ', 800.0000,1,   1,   1,   1,1.02410, -25.0186,1.10000,0.90000,1.10000,0.90000
    61,'陕秦岭      ', 800.0000,1,   1,   1,   1,1.01968, -26.0215,1.10000,0.90000,1.10000,0.90000
    62,'陕清水      ', 800.0000,1,   1,   1,   1,1.01865, -18.3369,1.10000,0.90000,1.10000,0.90000
    63,'陕神木      ', 800.0000,1,   1,   1,   1,1.01978, -18.8713,1.10000,0.90000,1.10000,0.90000
    64,'陕双河      ', 800.0000,1,   1,   1,   1,1.02392, -20.0840,1.10000,0.90000,1.10000,0.90000
    65,'陕西安      ', 800.0000,1,   1,   1,   1,1.01206, -27.0221,1.10000,0.90000,1.10000,0.90000
    66,'陕西安北    ', 800.0000,1,   1,   1,   1,1.02057, -25.4559,1.10000,0.90000,1.10000,0.90000
    67,'陕信义      ', 800.0000,1,   1,   1,   1,1.01900, -26.0197,1.10000,0.90000,1.10000,0.90000
    68,'陕延安      ', 800.0000,1,   1,   1,   1,1.01977, -22.7670,1.10000,0.90000,1.10000,0.90000
    69,'陕榆横      ', 800.0000,1,   1,   1,   1,1.02404, -20.3643,1.10000,0.90000,1.10000,0.90000
    70,'上海庙      ', 800.0000,1,   1,   1,   1,1.01154, -22.8419,1.10000,0.90000,1.10000,0.90000
    71,'新喀什      ', 800.0000,1,   1,   1,   1,1.02847,  44.9254,1.10000,0.90000,1.10000,0.90000
    72,'新莎车      ', 800.0000,1,   1,   1,   1,1.03102,  44.5385,1.10000,0.90000,1.10000,0.90000
    73,'新阿克苏    ', 800.0000,1,   1,   1,   1,1.02124,  43.3376,1.10000,0.90000,1.10000,0.90000
    74,'新巴楚      ', 800.0000,1,   1,   1,   1,1.03152,  44.2410,1.10000,0.90000,1.10000,0.90000
    75,'新巴州      ', 800.0000,1,   1,   1,   1,1.01780,  36.4060,1.10000,0.90000,1.10000,0.90000
    76,'新五彩湾    ', 800.0000,1,   1,   1,   1,1.01024,  32.4651,1.10000,0.90000,1.10000,0.90000
    77,'新达坂城    ', 800.0000,1,   1,   1,   1,1.01207,  35.0761,1.10000,0.90000,1.10000,0.90000
    78,'新凤凰      ', 800.0000,1,   1,   1,   1,1.01261,  39.2780,1.10000,0.90000,1.10000,0.90000
    79,'新国信      ', 800.0000,1,   1,   1,   1,1.01540,  31.2402,1.10000,0.90000,1.10000,0.90000
    80,'新哈密      ', 800.0000,1,   1,   1,   1,0.98788,  21.9307,1.10000,0.90000,1.10000,0.90000
    81,'新和田      ', 800.0000,1,   1,   1,   1,1.02703,  44.3918,1.10000,0.90000,1.10000,0.90000
    82,'新恒联      ', 800.0000,1,   1,   1,   1,1.01081,  32.6802,1.10000,0.90000,1.10000,0.90000
    83,'新芨芨湖    ', 800.0000,1,   1,   1,   1,1.01512,  30.8595,1.10000,0.90000,1.10000,0.90000
    84,'新库车      ', 800.0000,1,   1,   1,   1,1.01905,  39.8681,1.10000,0.90000,1.10000,0.90000
    85,'新库车电    ', 800.0000,1,   1,   1,   1,1.01912,  39.7381,1.10000,0.90000,1.10000,0.90000
    86,'新木垒      ', 800.0000,1,   1,   1,   1,1.01415,  29.6579,1.10000,0.90000,1.10000,0.90000
    87,'新三塘湖    ', 800.0000,1,   1,   1,   1,1.00601,  25.7873,1.10000,0.90000,1.10000,0.90000
    88,'新鄯善      ', 800.0000,1,   1,   1,   1,1.00065,  30.5981,1.10000,0.90000,1.10000,0.90000
    89,'新天山换    ', 800.0000,1,   1,   1,   1,0.96533,  21.4438,1.10000,0.90000,1.10000,0.90000
    90,'新吐鲁番    ', 800.0000,1,   1,   1,   1,1.00911,  33.0012,1.10000,0.90000,1.10000,0.90000
    91,'新乌市      ', 800.0000,1,   1,   1,   1,1.01155,  35.2704,1.10000,0.90000,1.10000,0.90000
    92,'新乌苏      ', 800.0000,1,   1,   1,   1,1.00957,  43.2546,1.10000,0.90000,1.10000,0.90000
    93,'新五家渠    ', 800.0000,1,   1,   1,   1,1.01129,  35.1787,1.10000,0.90000,1.10000,0.90000
    94,'新信友      ', 800.0000,1,   1,   1,   1,1.01534,  31.2569,1.10000,0.90000,1.10000,0.90000
    95,'新亚中      ', 800.0000,1,   1,   1,   1,1.01231,  38.1883,1.10000,0.90000,1.10000,0.90000
    96,'新烟墩      ', 800.0000,1,   1,   1,   1,0.98364,  20.8997,1.10000,0.90000,1.10000,0.90000
    97,'新伊犁      ', 800.0000,1,   1,   1,   1,1.00660,  46.1585,1.10000,0.90000,1.10000,0.90000
    98,'新准北      ', 800.0000,1,   1,   1,   1,1.01053,  35.1807,1.10000,0.90000,1.10000,0.90000
    99,'新彩北2     ', 800.0000,1,   1,   1,   1,1.01058,  32.4515,1.10000,0.90000,1.10000,0.90000
   100,'新彩北3     ', 800.0000,1,   1,   1,   1,1.01020,  32.6323,1.10000,0.90000,1.10000,0.90000
   101,'新彩北1     ', 800.0000,1,   1,   1,   1,1.00809,  33.3227,1.10000,0.90000,1.10000,0.90000
   102,'新国网能    ', 800.0000,1,   1,   1,   1,1.00840,  33.7031,1.10000,0.90000,1.10000,0.90000
   103,'新准东换    ', 800.0000,1,   1,   1,   1,1.01010,  32.4528,1.10000,0.90000,1.10000,0.90000
   104,'新潞安      ', 800.0000,1,   1,   1,   1,1.00839,  33.7158,1.10000,0.90000,1.10000,0.90000
   105,'新神华      ', 800.0000,1,   1,   1,   1,1.01060,  32.7099,1.10000,0.90000,1.10000,0.90000
   106,'新英格玛    ', 800.0000,1,   1,   1,   1,1.01489,  31.4073,1.10000,0.90000,1.10000,0.90000
   107,'新天山G     ',  24.0000,2,   1,   1,   1,1.00000,  90.2442,1.10000,0.90000,1.10000,0.90000
   108,'甘常乐G     ',  24.0000,2,   1,   1,   1,1.00000,  50.2391,1.10000,0.90000,1.10000,0.90000
   109,'青拉西G     ',  24.0000,2,   1,   1,   1,1.00000,  26.8665,1.10000,0.90000,1.10000,0.90000
   110,'甘敦煌G     ',  24.0000,2,   1,   1,   1,1.00000,  48.2466,1.10000,0.90000,1.10000,0.90000
   111,'甘桥湾G     ',  24.0000,2,   1,   1,   1,1.00000,  45.4720,1.10000,0.90000,1.10000,0.90000
   112,'新彩北1G    ',  24.0000,2,   1,   1,   1,1.00000,  54.2455,1.10000,0.90000,1.10000,0.90000
   113,'宁方家G     ',  24.0000,2,   1,   1,   1,1.00000,  -3.5997,1.10000,0.90000,1.10000,0.90000
   114,'宁鸳鸯G     ',  24.0000,2,   1,   1,   1,1.00000,  -2.6738,1.10000,0.90000,1.10000,0.90000
   115,'宁银东G     ',  24.0000,2,   1,   1,   1,1.00000, -10.1802,1.10000,0.90000,1.10000,0.90000
   116,'新伊犁厂    ',  24.0000,2,   1,   1,   1,1.00000,  56.4596,1.10000,0.90000,1.10000,0.90000
   117,'宁国华G     ',  24.0000,2,   1,   1,   1,1.00000, -10.6829,1.10000,0.90000,1.10000,0.90000
   118,'宁枣泉G     ',  24.0000,2,   1,   1,   1,1.00000,  -9.7911,1.10000,0.90000,1.10000,0.90000
   119,'宁永利G     ',  24.0000,2,   1,   1,   1,1.00000, -11.6066,1.10000,0.90000,1.10000,0.90000
   120,'新潞安G     ',  24.0000,2,   1,   1,   1,1.00000,  43.9984,1.10000,0.90000,1.10000,0.90000
   121,'新国能G     ',  24.0000,2,   1,   1,   1,1.00000,  43.9855,1.10000,0.90000,1.10000,0.90000
   122,'新恒联G     ',  24.0000,2,   1,   1,   1,1.00000,  42.9379,1.10000,0.90000,1.10000,0.90000
   123,'新神华G     ',  24.0000,2,   1,   1,   1,1.00000,  42.9697,1.10000,0.90000,1.10000,0.90000
   124,'新英格G     ',  24.0000,2,   1,   1,   1,1.00000,  41.6233,1.10000,0.90000,1.10000,0.90000
   125,'陕富县G     ',  24.0000,2,   1,   1,   1,1.00000, -12.8029,1.10000,0.90000,1.10000,0.90000
   126,'青日月G     ',  24.0000,3,   1,   1,   1,1.00000,   0.0000,1.10000,0.90000,1.10000,0.90000
   127,'宁中宁G     ',  24.0000,2,   1,   1,   1,1.00000, -10.4923,1.10000,0.90000,1.10000,0.90000
   128,'宁大坝G     ',  24.0000,2,   1,   1,   1,1.00000, -10.7811,1.10000,0.90000,1.10000,0.90000
   129,'陕清水G     ',  24.0000,2,   1,   1,   1,1.00000,  -9.8690,1.10000,0.90000,1.10000,0.90000
   130,'新亚中厂    ',  24.0000,2,   1,   1,   1,1.00000,  46.7095,1.10000,0.90000,1.10000,0.90000
   131,'青塔拉G     ',  24.0000,2,   1,   1,   1,1.00000,   0.1983,1.10000,0.90000,1.10000,0.90000
   132,'新烟墩厂    ',  24.0000,2,   1,   1,   1,1.00000,  26.1495,1.10000,0.90000,1.10000,0.90000
   133,'陕定靖G     ',  24.0000,2,   1,   1,   1,1.00000, -15.9360,1.10000,0.90000,1.10000,0.90000
   134,'陕店塔G     ',  24.0000,2,   1,   1,   1,1.00000, -12.8278,1.10000,0.90000,1.10000,0.90000
   135,'陕双河G     ',  24.0000,2,   1,   1,   1,1.00000, -15.0414,1.10000,0.90000,1.10000,0.90000
   136,'新彩北3G    ',  24.0000,2,   1,   1,   1,1.00000,  37.7437,1.10000,0.90000,1.10000,0.90000
   137,'新乌苏G     ',  24.0000,2,   1,   1,   1,1.00000,  47.9419,1.10000,0.90000,1.10000,0.90000
   138,'新凤凰G     ',  24.0000,2,   1,   1,   1,1.00000,  43.9512,1.10000,0.90000,1.10000,0.90000
   139,'新五彩G     ',  24.0000,2,   1,   1,   1,1.00000,  37.1493,1.10000,0.90000,1.10000,0.90000
   140,'甘平凉2G    ',  24.0000,2,   1,   1,   1,1.00000, -17.5514,1.10000,0.90000,1.10000,0.90000
   141,'宁宁东G     ',  24.0000,2,   1,   1,   1,1.00000, -18.7002,1.10000,0.90000,1.10000,0.90000
   142,'甘崇信G     ',  24.0000,2,   1,   1,   1,1.00000, -17.5197,1.10000,0.90000,1.10000,0.90000
   143,'宁银星G     ',  24.0000,2,   1,   1,   1,1.00000, -17.5536,1.10000,0.90000,1.10000,0.90000
   144,'青官亭G     ',  24.0000,2,   1,   1,   1,1.00000,  -8.4490,1.10000,0.90000,1.10000,0.90000
   145,'陕延安G     ',  24.0000,2,   1,   1,   1,1.00000, -18.5493,1.10000,0.90000,1.10000,0.90000
   146,'甘白银G     ',  24.0000,2,   1,   1,   1,1.00000, -11.6896,1.10000,0.90000,1.10000,0.90000
   147,'甘沙州G     ',  24.0000,2,   1,   1,   1,1.00000,  19.8346,1.10000,0.90000,1.10000,0.90000
   148,'青格尔G     ',  24.0000,2,   1,   1,   1,1.00000,  13.0409,1.10000,0.90000,1.10000,0.90000
   149,'新乌市G     ',  24.0000,2,   1,   1,   1,1.00000,  38.6708,1.10000,0.90000,1.10000,0.90000
   150,'陕宝鸡2G    ',  24.0000,2,   1,   1,   1,1.00000, -22.4334,1.10000,0.90000,1.10000,0.90000
   151,'陕彬长G     ',  24.0000,2,   1,   1,   1,1.00000, -22.2045,1.10000,0.90000,1.10000,0.90000
   152,'新阿克G     ',  24.0000,2,   1,   1,   1,1.00000,  45.8631,1.10000,0.90000,1.10000,0.90000
   153,'宁灵武G     ',  24.0000,2,   1,   1,   1,1.00000, -20.4562,1.10000,0.90000,1.10000,0.90000
   154,'青羊曲G     ',  24.0000,2,   1,   1,   1,1.00000,  -4.9640,1.10000,0.90000,1.10000,0.90000
   155,'新喀什G     ',  24.0000,2,   1,   1,   1,1.00000,  47.0149,1.10000,0.90000,1.10000,0.90000
   156,'新三塘G     ',  24.0000,2,   1,   1,   1,1.00000,  27.4962,1.10000,0.90000,1.10000,0.90000
   157,'甘景泰G     ',  24.0000,2,   1,   1,   1,1.00000, -14.6840,1.10000,0.90000,1.10000,0.90000
   158,'青海德G     ',  24.0000,2,   1,   1,   1,1.00000,   2.7235,1.10000,0.90000,1.10000,0.90000
   159,'青柴海G     ',  24.0000,2,   1,   1,   1,1.00000,  11.1925,1.10000,0.90000,1.10000,0.90000
0 / END OF BUS DATA, BEGIN LOAD DATA
     4,'1 ',1,   1,   1,  1652.071,   600.000,     0.000,     0.000,     0.000,     0.000,   1,1,0
     4,'2 ',1,   1,   1,   107.161,    50.000,     0.000,     0.000,     0.000,     0.000,   1,1,0
     7,'1 ',1,   1,   1,  1877.587,   800.000,     0.000,     0.000,     0.000,     0.000,   1,1,0
    10,'DC',1,   1,   1,  8000.000,  3000.000,     0.000,     0.000,     0.000,     0.000,   1,1,0
    11,'1 ',1,   1,   1,   247.358,   100.000,     0.000,     0.000,     0.000,     0.000,   1,1,0
    12,'1 ',1,   1,   1,   730.877,   300.000,     0.000,     0.000,     0.000,     0.000,   1,1,0
    13,'1 ',1,   1,   1,   725.820,   300.000,     0.000,     0.000,     0.000,     0.000,   1,1,0
    17,'1 ',1,   1,   1,  1071.997,   400.000,     0.000,     0.000,     0.000,     0.000,   1,1,0
    22,'1 ',1,   1,   1,   622.662,   200.000,     0.000,     0.000,     0.000,     0.000,   1,1,0
    23,'1 ',1,   1,   1,   783.990,   300.000,     0.000,     0.000,     0.000,     0.000,   1,1,0
    27,'1 ',1,   1,   1,   838.792,   300.000,     0.000,     0.000,     0.000,     0.000,   1,1,0
    28,'1 ',1,   1,   1,   636.333,   300.000,     0.000,     0.000,     0.000,     0.000,   1,1,0
    30,'DC',1,   1,   1,  8000.000,  3000.000,     0.000,     0.000,     0.000,     0.000,   1,1,0
    32,'DC',1,   1,   1,  4000.000,  1500.000,     0.000,     0.000,     0.000,     0.000,   1,1,0
    42,'1 ',1,   1,   1,    71.429,     0.000,     0.000,     0.000,     0.000,     0.000,   1,1,0
    47,'1 ',1,   1,   1,  1624.952,   600.000,     0.000,     0.000,     0.000,     0.000,   1,1,0
    48,'1 ',1,   1,   1,   459.139,   200.000,     0.000,     0.000,     0.000,     0.000,   1,1,0
    50,'1 ',1,   1,   1,  1156.896,   500.000,     0.000,     0.000,     0.000,     0.000,   1,1,0
    53,'1 ',1,   1,   1,   339.482,   100.000,     0.000,     0.000,     0.000,     0.000,   1,1,0
    59,'1 ',1,   1,   1,   550.308,   200.000,     0.000,     0.000,     0.000,     0.000,   1,1,0
    60,'1 ',1,   1,   1,  1393.916,   600.000,     0.000,     0.000,     0.000,     0.000,   1,1,0
    63,'1 ',1,   1,   1,   358.390,   100.000,     0.000,     0.000,     0.000,     0.000,   1,1,0
    65,'1 ',1,   1,   1,  2091.593,  1000.000,     0.000,     0.000,     0.000,     0.000,   1,1,0
    66,'1 ',1,   1,   1,  1680.713,   600.000,     0.000,     0.000,     0.000,     0.000,   1,1,0
    67,'1 ',1,   1,   1,   443.118,   200.000,     0.000,     0.000,     0.000,     0.000,   1,1,0
    67,'DC',1,   1,   1,   720.000,   360.000,     0.000,     0.000,     0.000,     0.000,   1,1,0
    69,'1 ',1,   1,   1,   325.511,   100.000,     0.000,     0.000,     0.000,     0.000,   1,1,0
    70,'1 ',1,   1,   1,    85.665,    30.000,     0.000,     0.000,     0.000,     0.000,   1,1,0
    72,'1 ',1,   1,   1,    25.832,     0.000,     0.000,     0.000,     0.000,     0.000,   1,1,0
    75,'1 ',1,   1,   1,   119.997,    50.000,     0.000,     0.000,     0.000,     0.000,   1,1,0
    80,'1 ',1,   1,   1,    90.363,     0.000,     0.000,     0.000,     0.000,     0.000,   1,1,0
    81,'1 ',1,   1,   1,    24.460,     0.000,     0.000,     0.000,     0.000,     0.000,   1,1,0
    84,'1 ',1,   1,   1,    27.008,     0.000,     0.000,     0.000,     0.000,     0.000,   1,1,0
    85,'1 ',1,   1,   1,   220.271,   100.000,     0.000,     0.000,     0.000,     0.000,   1,1,0
    88,'1 ',1,   1,   1,   323.947,   100.000,     0.000,     0.000,     0.000,     0.000,   1,1,0
    89,'DC',1,   1,   1,  8000.000,  3000.000,     0.000,     0.000,     0.000,     0.000,   1,1,0
    93,'1 ',1,   1,   1,   126.635,    50.000,     0.000,     0.000,     0.000,     0.000,   1,1,0
   103,'1 ',1,   1,   1,  3000.000,  1000.000,     0.000,     0.000,     0.000,     0.000,   1,1,0
   103,'DC',1,   1,   1,  6000.000,  2000.000,     0.000,     0.000,     0.000,     0.000,   1,1,0
0 / END OF LOAD DATA, BEGIN FIXED SHUNT DATA
    10,'1 ',1,     0.000,  3000.000
    30,'1 ',1,     0.000,  2000.000
    32,'1 ',1,     0.000,  1000.000
    89,'1 ',1,     0.000,  3000.000
   103,'1 ',1,     0.000,  1500.000
0 / END OF FIXED SHUNT DATA, BEGIN GENERATOR DATA
   107,'1 ',  1200.000,   867.894,  9999.000, -9999.000,1.00000,     0,  1000.000, 0.00000E+0, 1.00000E+0, 0.00000E+0, 0.00000E+0,1.00000,1,  100.0,  1320.000,     0.000,   1,1.0000
   107,'2 ',  1200.000,   867.894,  9999.000, -9999.000,1.00000,     0,  1000.000, 0.00000E+0, 1.00000E+0, 0.00000E+0, 0.00000E+0,1.00000,1,  100.0,  1320.000,     0.000,   1,1.0000
   107,'3 ',  1200.000,   867.894,  9999.000, -9999.000,1.00000,     0,  1000.000, 0.00000E+0, 1.00000E+0, 0.00000E+0, 0.00000E+0,1.00000,1,  100.0,  1320.000,     0.000,   1,1.0000
   107,'4 ',  1200.000,   867.894,  9999.000, -9999.000,1.00000,     0,  1000.000, 0.00000E+0, 1.00000E+0, 0.00000E+0, 0.00000E+0,1.00000,1,  100.0,  1320.000,     0.000,   1,1.0000
   107,'5 ',  1200.000,   867.894,  9999.000, -9999.000,1.00000,     0,  1000.000, 0.00000E+0, 1.00000E+0, 0.00000E+0, 0.00000E+0,1.00000,1,  100.0,  1320.000,     0.000,   1,1.0000
   108,'1 ',  1200.000,   402.290,  9999.000, -9999.000,1.00000,     0,  1000.000, 0.00000E+0, 1.00000E+0, 0.00000E+0, 0.00000E+0,1.00000,1,  100.0,  1320.000,     0.000,   1,1.0000
   108,'2 ',  1200.000,   402.290,  9999.000, -9999.000,1.00000,     0,  1000.000, 0.00000E+0, 1.00000E+0, 0.00000E+0, 0.00000E+0,1.00000,1,  100.0,  1320.000,     0.000,   1,1.0000
   108,'3 ',  1200.000,   402.290,  9999.000, -9999.000,1.00000,     0,  1000.000, 0.00000E+0, 1.00000E+0, 0.00000E+0, 0.00000E+0,1.00000,1,  100.0,  1320.000,     0.000,   1,1.0000
   108,'4 ',   400.000,   134.097,  9999.000, -9999.000,1.00000,     0,  1000.000, 0.00000E+0, 1.00000E+0, 0.00000E+0, 0.00000E+0,1.00000,1,  100.0,   600.000,     0.000,   1,1.0000
   109,'1 ',  1200.000,   327.447,  9999.000, -9999.000,1.00000,     0,  1000.000, 0.00000E+0, 1.00000E+0, 0.00000E+0, 0.00000E+0,1.00000,1,  100.0,  1320.000,     0.000,   1,1.0000
   109,'2 ',  1200.000,   327.447,  9999.000, -9999.000,1.00000,     0,  1000.000, 0.00000E+0, 1.00000E+0, 0.00000E+0, 0.00000E+0,1.00000,1,  100.0,  1320.000,     0.000,   1,1.0000
   109,'3 ',  1200.000,   327.447,  9999.000, -9999.000,1.00000,     0,  1000.000, 0.00000E+0, 1.00000E+0, 0.00000E+0, 0.00000E+0,1.00000,1,  100.0,  1320.000,     0.000,   1,1.0000
   110,'1 ',  1200.000,   346.313,  9999.000, -9999.000,1.00000,     0,  1000.000, 0.00000E+0, 1.00000E+0, 0.00000E+0, 0.00000E+0,1.00000,1,  100.0,  1320.000,     0.000,   1,1.0000
   110,'2 ',  1200.000,   346.313,  9999.000, -9999.000,1.00000,     0,  1000.000, 0.00000E+0, 1.00000E+0, 0.00000E+0, 0.00000E+0,1.00000,1,  100.0,  1320.000,     0.000,   1,1.0000
   110,'3 ',  1200.000,   346.313,  9999.000, -9999.000,1.00000,     0,  1000.000, 0.00000E+0, 1.00000E+0, 0.00000E+0, 0.00000E+0,1.00000,1,  100.0,  1320.000,     0.000,   1,1.0000
   111,'1 ',  1200.000,   337.677,  9999.000, -9999.000,1.00000,     0,  1000.000, 0.00000E+0, 1.00000E+0, 0.00000E+0, 0.00000E+0,1.00000,1,  100.0,  1320.000,     0.000,   1,1.0000
   111,'2 ',  1200.000,   337.677,  9999.000, -9999.000,1.00000,     0,  1000.000, 0.00000E+0, 1.00000E+0, 0.00000E+0, 0.00000E+0,1.00000,1,  100.0,  1320.000,     0.000,   1,1.0000
   111,'3 ',  1200.000,   337.677,  9999.000, -9999.000,1.00000,     0,  1000.000, 0.00000E+0, 1.00000E+0, 0.00000E+0, 0.00000E+0,1.00000,1,  100.0,  1320.000,     0.000,   1,1.0000
   112,'1 ',  1200.000,   194.598,  9999.000, -9999.000,1.00000,     0,  1000.000, 0.00000E+0, 1.00000E+0, 0.00000E+0, 0.00000E+0,1.00000,1,  100.0,  1320.000,     0.000,   1,1.0000
   112,'2 ',  1200.000,   194.598,  9999.000, -9999.000,1.00000,     0,  1000.000, 0.00000E+0, 1.00000E+0, 0.00000E+0, 0.00000E+0,1.00000,1,  100.0,  1320.000,     0.000,   1,1.0000
   113,'1 ',  1000.000,   118.721,  9999.000, -9999.000,1.00000,     0,  1000.000, 0.00000E+0, 1.00000E+0, 0.00000E+0, 0.00000E+0,1.00000,1,  100.0,  1320.000,     0.000,   1,1.0000
   113,'2 ',  1000.000,   118.721,  9999.000, -9999.000,1.00000,     0,  1000.000, 0.00000E+0, 1.00000E+0, 0.00000E+0, 0.00000E+0,1.00000,1,  100.0,  1320.000,     0.000,   1,1.0000
   114,'1 ',  1000.000,   114.509,  9999.000, -9999.000,1.00000,     0,  1000.000, 0.00000E+0, 1.00000E+0, 0.00000E+0, 0.00000E+0,1.00000,1,  100.0,  1320.000,     0.000,   1,1.0000
   114,'2 ',  1000.000,   114.509,  9999.000, -9999.000,1.00000,     0,  1000.000, 0.00000E+0, 1.00000E+0, 0.00000E+0, 0.00000E+0,1.00000,1,  100.0,  1320.000,     0.000,   1,1.0000
   115,'1 ',  1200.000,    95.737,  9999.000, -9999.000,1.00000,     0,  1000.000, 0.00000E+0, 1.00000E+0, 0.00000E+0, 0.00000E+0,1.00000,1,  100.0,  1320.000,     0.000,   1,1.0000
   115,'2 ',   300.000,    23.934,  9999.000, -9999.000,1.00000,     0,  1000.000, 0.00000E+0, 1.00000E+0, 0.00000E+0, 0.00000E+0,1.00000,1,  100.0,   600.000,     0.000,   1,1.0000
   116,'1 ',  1200.000,    64.174,  9999.000, -9999.000,1.00000,     0,  1000.000, 0.00000E+0, 1.00000E+0, 0.00000E+0, 0.00000E+0,1.00000,1,  100.0,  1320.000,     0.000,   1,1.0000
   117,'1 ',  1200.000,    39.891,  9999.000, -9999.000,1.00000,     0,  1000.000, 0.00000E+0, 1.00000E+0, 0.00000E+0, 0.00000E+0,1.00000,1,  100.0,  1320.000,     0.000,   1,1.0000
   118,'1 ',  1200.000,    32.307,  9999.000, -9999.000,1.00000,     0,  1000.000, 0.00000E+0, 1.00000E+0, 0.00000E+0, 0.00000E+0,1.00000,1,  100.0,  1320.000,     0.000,   1,1.0000
   119,'1 ',  1200.000,    41.546,  9999.000, -9999.000,1.00000,     0,  1000.000, 0.00000E+0, 1.00000E+0, 0.00000E+0, 0.00000E+0,1.00000,1,  100.0,  1320.000,     0.000,   1,1.0000
   120,'1 ',  1200.000,    52.065,  9999.000, -9999.000,1.00000,     0,  1000.000, 0.00000E+0, 1.00000E+0, 0.00000E+0, 0.00000E+0,1.00000,1,  100.0,  1320.000,     0.000,   1,1.0000
   121,'1 ',  1200.000,    51.948,  9999.000, -9999.000,1.00000,     0,  1000.000, 0.00000E+0, 1.00000E+0, 0.00000E+0, 0.00000E+0,1.00000,1,  100.0,  1320.000,     0.000,   1,1.0000
   122,'1 ',  1200.000,    35.617,  9999.000, -9999.000,1.00000,     0,  1000.000, 0.00000E+0, 1.00000E+0, 0.00000E+0, 0.00000E+0,1.00000,1,  100.0,  1320.000,     0.000,   1,1.0000
   123,'1 ',  1200.000,    37.063,  9999.000, -9999.000,1.00000,     0,  1000.000, 0.00000E+0, 1.00000E+0, 0.00000E+0, 0.00000E+0,1.00000,1,  100.0,  1320.000,     0.000,   1,1.0000
   124,'1 ',  1200.000,     7.999,  9999.000, -9999.000,1.00000,     0,  1000.000, 0.00000E+0, 1.00000E+0, 0.00000E+0, 0.00000E+0,1.00000,1,  100.0,  1320.000,     0.000,   1,1.0000
   125,'1 ',  1200.000,   -29.607,  9999.000, -9999.000,1.00000,     0,  1000.000, 0.00000E+0, 1.00000E+0, 0.00000E+0, 0.00000E+0,1.00000,1,  100.0,  1320.000,     0.000,   1,1.0000
   126,'1 ',   911.537,  -142.111,  9999.000, -9999.000,1.00000,     0,  1000.000, 0.00000E+0, 1.00000E+0, 0.00000E+0, 0.00000E+0,1.00000,1,  100.0,  1320.000,     0.000,   1,1.0000
   127,'1 ',  1200.000,   -31.168,  9999.000, -9999.000,1.00000,     0,  1000.000, 0.00000E+0, 1.00000E+0, 0.00000E+0, 0.00000E+0,1.00000,1,  100.0,  1320.000,     0.000,   1,1.0000
   128,'1 ',  1200.000,    -8.844,  9999.000, -9999.000,1.00000,     0,  1000.000, 0.00000E+0, 1.00000E+0, 0.00000E+0, 0.00000E+0,1.00000,1,  100.0,  1320.000,     0.000,   1,1.0000
   129,'1 ',  1000.000,   -50.279,  9999.000, -9999.000,1.00000,     0,  1000.000, 0.00000E+0, 1.00000E+0, 0.00000E+0, 0.00000E+0,1.00000,1,  100.0,  1320.000,     0.000,   1,1.0000
   130,'1 ',  1000.000,    -7.535,  9999.000, -9999.000,1.00000,     0,  1000.000, 0.00000E+0, 1.00000E+0, 0.00000E+0, 0.00000E+0,1.00000,1,  100.0,  1320.000,     0.000,   1,1.0000
   131,'1 ',   900.000,  -186.791,  9999.000, -9999.000,1.00000,     0,  1000.000, 0.00000E+0, 1.00000E+0, 0.00000E+0, 0.00000E+0,1.00000,1,  100.0,  1000.000,     0.000,   1,1.0000
   132,'1 ',   600.000,   136.585,  9999.000, -9999.000,1.00000,     0,  1000.000, 0.00000E+0, 1.00000E+0, 0.00000E+0, 0.00000E+0,1.00000,1,  100.0,   750.000,     0.000,   1,1.0000
   133,'1 ',   600.000,  -127.853,  9999.000, -9999.000,1.00000,     0,  1000.000, 0.00000E+0, 1.00000E+0, 0.00000E+0, 0.00000E+0,1.00000,1,  100.0,   750.000,     0.000,   1,1.0000
   134,'1 ',   600.000,   -89.082,  9999.000, -9999.000,1.00000,     0,  1000.000, 0.00000E+0, 1.00000E+0, 0.00000E+0, 0.00000E+0,1.00000,1,  100.0,   750.000,     0.000,   1,1.0000
   135,'1 ',   600.000,  -133.023,  9999.000, -9999.000,1.00000,     0,  1000.000, 0.00000E+0, 1.00000E+0, 0.00000E+0, 0.00000E+0,1.00000,1,  100.0,   750.000,     0.000,   1,1.0000
   136,'1 ',   600.000,   -41.205,  9999.000, -9999.000,1.00000,     0,  1000.000, 0.00000E+0, 1.00000E+0, 0.00000E+0, 0.00000E+0,1.00000,1,  100.0,   750.000,     0.000,   1,1.0000
   137,'1 ',   550.000,   -41.313,  9999.000, -9999.000,1.00000,     0,  1000.000, 0.00000E+0, 1.00000E+0, 0.00000E+0, 0.00000E+0,1.00000,1,  100.0,   750.000,     0.000,   1,1.0000
   138,'1 ',   550.000,   -61.655,  9999.000, -9999.000,1.00000,     0,  1000.000, 0.00000E+0, 1.00000E+0, 0.00000E+0, 0.00000E+0,1.00000,1,  100.0,   750.000,     0.000,   1,1.0000
   139,'1 ',   550.000,   -45.771,  9999.000, -9999.000,1.00000,     0,  1000.000, 0.00000E+0, 1.00000E+0, 0.00000E+0, 0.00000E+0,1.00000,1,  100.0,   750.000,     0.000,   1,1.0000
   140,'1 ',   500.000,  -135.336,  9999.000, -9999.000,1.00000,     0,  1000.000, 0.00000E+0, 1.00000E+0, 0.00000E+0, 0.00000E+0,1.00000,1,  100.0,   600.000,     0.000,   1,1.0000
   141,'1 ',   500.000,   -32.809,  9999.000, -9999.000,1.00000,     0,  1000.000, 0.00000E+0, 1.00000E+0, 0.00000E+0, 0.00000E+0,1.00000,1,  100.0,   600.000,     0.000,   1,1.0000
   142,'1 ',   500.000,  -132.737,  9999.000, -9999.000,1.00000,     0,  1000.000, 0.00000E+0, 1.00000E+0, 0.00000E+0, 0.00000E+0,1.00000,1,  100.0,   600.000,     0.000,   1,1.0000
   143,'1 ',   500.000,   -47.000,  9999.000, -9999.000,1.00000,     0,  1000.000, 0.00000E+0, 1.00000E+0, 0.00000E+0, 0.00000E+0,1.00000,1,  100.0,   600.000,     0.000,   1,1.0000
   144,'1 ',   500.000,  -150.125,  9999.000, -9999.000,1.00000,     0,  1000.000, 0.00000E+0, 1.00000E+0, 0.00000E+0, 0.00000E+0,1.00000,1,  100.0,   600.000,     0.000,   1,1.0000
   145,'1 ',   500.000,  -113.416,  9999.000, -9999.000,1.00000,     0,  1000.000, 0.00000E+0, 1.00000E+0, 0.00000E+0, 0.00000E+0,1.00000,1,  100.0,   600.000,     0.000,   1,1.0000
   146,'1 ',   600.000,  -179.948,  9999.000, -9999.000,1.00000,     0,  1000.000, 0.00000E+0, 1.00000E+0, 0.00000E+0, 0.00000E+0,1.00000,1,  100.0,   750.000,     0.000,   1,1.0000