    102 'GENCLS' 1     7.6000       2.000/
    104 'GENCLS' 1     7.5000       2.000/
    105 'GENCLS' 1     7.5000       2.000/
    111 'GENCLS' 1     7.5000       2.000/
    112 'GENCLS' 1     7.5000       2.000/
    114 'GENCLS' 1     7.0000       2.000/
    122 'GENCLS' 1     7.5000       2.000/
    128 'GENCLS' 1     7.5000       2.000/
    129 'GENCLS' 1     7.5000       2.000/
    139 'GENCLS' 1     7.5000       2.000/
    140 'GENCLS' 1     7.5000       2.000/
    143 'GENCLS' 1     7.5000       2.000/
    145 'GENCLS' 1     7.5000       2.000/
    156 'GENCLS' 1     7.0000       2.000/
    170 'GENCLS' 1     7.0000       2.000/
    175 'GENCLS' 1     7.0000       2.000/
    178 'GENCLS' 1     7.5000       2.000/
    183 'GENCLS' 1     7.5000       2.000/
    187 'GENCLS' 1     7.5000       2.000/
    191 'GENCLS' 1     7.5000       2.000/
    193 'GENCLS' 1     7.5000       2.000/
    194 'GENCLS' 1     6.0000       2.000    /
    202 'GENCLS' 1     6.0000       2.000    /
    302 'GENCLS' 1     6.0000       2.000    /
      0 'IEELAL' *    0.40000       0.0000      0.60000      0.40000    
          0.0000      0.60000       2.0000      -1.8000       2.0000    
          1.0000       0.0000       2.0000       1.0000       0.0000    /
