    102 'GENROU' 1     8.3750      0.19980       0.2000      0.19980    
          2.6360       0.0000       1.8548       1.8540      0.25680    
          0.3568       0.1500       0.1000      0.0300       0.4000    /
    102 'SEXS'   1    0.10000       10.000       100.00      0.10000    
          0.0000       6.0000    /
    104 'GENROU' 1     8.4500      0.04700       0.9380      0.04700    
          2.7780       0.0000       2.0811       2.0000      0.30050    
          0.41730      0.1500      0.1000        0.0300       0.4000    /
    104 'SEXS'   1    0.10000       10.000       100.00      0.10000    
          0.0000       6.0000    /
    104 'IEESGO' 1          0           0        0.04        0.0000    
          0.0000      0.00000      20.0000       0.0000      0.00000    
          1.5000       0.5000           /
    105 'GENROU' 1     8.4500      0.04700       0.9380      0.04700    
          2.7780       0.0000       2.0811       2.0000      0.30050    
         0.41730       0.1500      0.1000        0.0300       0.4000     /
    105 'SEXS'   1    0.10000       10.000       100.00      0.10000    
          0.0000       6.0000    /
    105 'IEESGO' 1          0           0        0.04        0.0000    
          0.0000      0.00000      20.0000       0.0000      0.00000    
          1.5000       0.5000           /
    111 'GENROU' 1     7.5000      0.05000       0.9380      0.05000    
          4.4300       0.0000       1.8929       1.8000      0.27510    
         0.37510       0.1500      0.1000        0.0300      0.4000     /
    111 'SEXS'   1    0.10000       10.000       100.00      0.10000    
          0.0000       6.0000    /
    111 'IEESGO' 1          0           0        0.04        0.0000    
          0.0000      0.00000      20.0000       0.0000      0.00000    
          1.5000       0.5000           /
    112 'GENROU' 1     7.5000      0.05000       0.9380      0.05000    
          4.4300       0.0000       1.8929       1.8000      0.27510    
         0.37510      0.1500      0.1000        0.0300       0.4000     /
    112 'SEXS'   1    0.10000       10.000       100.00      0.10000    
          0.0000       6.0000    /
    112 'IEESGO' 1          0           0        0.04        0.0000    
          0.0000      0.00000      20.0000       0.0000      0.00000    
          1.5000       0.5000           /
    114 'GENROU' 1     7.5000      0.05000       0.9380      0.05000    
          4.4300       0.0000       1.8929       1.8000      0.27510    
         0.37510       0.1500      0.1000        0.0300       0.4000     /
    114 'SEXS'   1    0.10000       10.000       100.00      0.10000    
          0.0000       6.0000    /
    114 'IEESGO' 1          0           0        0.04        0.0000    
          0.0000      0.00000      20.0000       0.0000      0.00000    
          1.5000       0.5000           /
    122 'GENROU' 1     8.4500      0.04700       0.9380      0.04700    
          2.7780       0.0000       2.0811       2.0000      0.30050    
         0.41730       0.1500      0.1000        0.0300       0.4000    /
    122 'SEXS'   1    0.10000       10.000       100.00      0.10000    
          0.0000       6.0000    /
    122 'IEESGO' 1          0           0        0.04        0.0000    
          0.0000      0.00000      20.0000       0.0000      0.00000    
          1.5000       0.5000           /
    128  'GENROU' 1     7.5000      0.05000       0.9380      0.05000    
          4.4300       0.0000       1.8929       1.8000      0.27510    
         0.37510       0.1500       0.1000       0.0300       0.4000     /
    128 'SEXS'   1    0.10000       10.000       100.00      0.10000    
          0.0000       6.0000    /
    128 'IEESGO' 1          0           0        0.04        0.0000    
          0.0000      0.00000      20.0000       0.0000      0.00000    
          1.5000       0.5000           /
    129  'GENROU' 1     7.5000      0.05000       0.9380      0.05000    
          4.4300       0.0000       1.8929       1.8000      0.27510    
         0.37510       0.1500       0.1000        0.0300      0.4000    /
    129 'SEXS'   1    0.10000       10.000       100.00      0.10000    
          0.0000       6.0000    /
    129 'IEESGO' 1          0           0        0.04        0.0000    
          0.0000      0.00000      20.0000       0.0000      0.00000    
          1.5000       0.5000           /
    139 'GENROU' 1     7.5000      0.05000       0.9380      0.05000    
          4.4300       0.0000       1.8929       1.8000      0.27510    
         0.37510       0.1500       0.1000       0.0300       0.4000     /
    139 'SEXS'   1    0.10000       10.000       100.00      0.10000    
          0.0000       6.0000    /
    139 'IEESGO' 1          0           0        0.04        0.0000    
          0.0000      0.00000      20.0000       0.0000      0.00000    
          1.5000       0.5000           /
    140 'GENROU' 1     8.4500      0.04700       0.9380      0.04700    
          2.7780       0.0000       2.0811       2.0000      0.30050    
         0.41730       0.1500      0.10000       0.0300       0.4000     /
    140 'SEXS'   1    0.10000       10.000       100.00      0.10000    
          0.0000       6.0000    /
    140 'IEESGO' 1          0           0        0.04        0.0000    
          0.0000      0.00000      20.0000       0.0000      0.00000    
          1.5000       0.5000           /
    143 'GENROU' 1     8.4500      0.04700       0.9380      0.04700    
          2.7780       0.0000       2.0811       2.0000      0.30050    
         0.41730       0.1500       0.1000       0.0300       0.4000     /
    143 'SEXS'   1    0.10000       10.000       100.00      0.10000    
          0.0000       6.0000    /
    143 'IEESGO' 1          0           0        0.04        0.0000    
          0.0000      0.00000      20.0000       0.0000      0.00000    
          1.5000       0.5000           /
    145 'GENROU' 1     8.4500      0.04700       0.9380      0.04700    
          2.7780       0.0000       2.0811       2.0000      0.30050    
         0.41730       0.1500       0.1000       0.0300       0.4000     /
    145 'SEXS'   1    0.10000       10.000       100.00      0.10000    
          0.0000       6.0000    /
    145 'IEESGO' 1          0           0        0.04        0.0000    
          0.0000      0.00000      20.0000       0.0000      0.00000    
          1.5000       0.5000           /
    156 'GENROU' 1     8.4500      0.04700       0.9380      0.04700    
          2.7780       0.0000       2.0811       2.0000      0.30050    
         0.41730       0.1500     0.1000        0.0300       0.4000    /
    156 'SEXS'   1    0.10000       10.000       100.00      0.10000    
          0.0000       6.0000    /
    156 'IEESGO' 1          0           0        0.04        0.0000    
          0.0000      0.00000      20.0000       0.0000      0.00000    
          1.5000       0.5000           /
    170 'GENROU' 1     7.5000      0.05000       0.9380      0.05000    
          4.4300       0.0000       1.8929       1.8000      0.27510    
         0.37510       0.1500      0.1000        0.0300       0.4000     /
    170 'SEXS'   1    0.10000       10.000       100.00      0.10000    
          0.0000       6.0000    /
    170 'IEESGO' 1          0           0        0.04        0.0000    
          0.0000      0.00000      20.0000       0.0000      0.00000    
          1.5000       0.5000           /
    175 'GENROU' 1     8.4500      0.04700       0.9380      0.04700    
          2.7780       0.0000       2.0811       2.0000      0.30050    
         0.41730       0.1500       0.1000       0.0300       0.4000     /
    175 'SEXS'   1    0.10000       10.000       100.00      0.10000    
          0.0000       6.0000    /
    175 'IEESGO' 1          0           0        0.04        0.0000    
          0.0000      0.00000      20.0000       0.0000      0.00000    
          1.5000       0.5000           /
    178 'GENROU' 1     7.5000      0.05000       0.9380      0.05000    
          4.4300       0.0000       1.8929       1.8000      0.27510    
         0.37510       0.1500      0.1000       0.0300       0.4000     /
    178 'SEXS'   1    0.10000       10.000       100.00      0.10000    
          0.0000       6.0000    /
    178 'IEESGO' 1          0           0        0.04        0.0000    
          0.0000      0.00000      20.0000       0.0000      0.00000    
          1.5000       0.5000           /
    183 'GENROU' 1     7.5000      0.05000       0.9380      0.05000    
          4.4300       0.0000       1.8929       1.8000      0.27510    
         0.37510       0.1500       0.1000       0.0300       0.4000     /
    183 'SEXS'   1    0.10000       10.000       100.00      0.10000    
          0.0000       6.0000    /
    183 'IEESGO' 1          0           0        0.04        0.0000    
          0.0000      0.00000      20.0000       0.0000      0.00000    
          1.5000       0.5000           /
    187 'GENROU' 1     7.5000      0.05000       0.9380      0.05000    
          4.4300       0.0000       1.8929       1.8000      0.27510    
         0.37510       0.1500       0.1000       0.0300       0.4000     /
    187 'SEXS'   1    0.10000       10.000       100.00      0.10000    
          0.0000       6.0000    /
    187 'IEESGO' 1          0           0        0.04        0.0000    
          0.0000      0.00000      20.0000       0.0000      0.00000    
          1.5000       0.5000           /
    191 'GENROU' 1     7.5000      0.05000       0.9380      0.05000    
          4.4300       0.0000       1.8929       1.8000      0.27510    
         0.37510       0.1500       0.1000       0.0300      0.4000     /
    191 'SEXS'   1    0.10000       10.000       100.00      0.10000    
          0.0000       6.0000    /
    191 'IEESGO' 1          0           0        0.04        0.0000    
          0.0000      0.00000      20.0000       0.0000      0.00000    
          1.5000       0.5000           /
    193 'GENROU' 1     7.5000      0.05000       0.9380      0.05000    
          4.4300       0.0000       1.8929       1.8000      0.27510    
         0.37510       0.1500       0.1000       0.0300       0.4000     /
    193 'SEXS'   1    0.10000       10.000       100.00      0.10000    
          0.0000       6.0000    /
    193 'IEESGO' 1          0           0        0.04        0.0000    
          0.0000      0.00000      20.0000       0.0000      0.00000    
          1.5000       0.5000           /
    194 'GENCLS' 1     6.0000       0.0000    /
    202 'GENCLS' 1     6.0000       0.0000    /
    302 'GENCLS' 1     6.0000       0.0000    /
      0 'IEELAL' *    0.40000       0.0000      0.60000      0.40000    
          0.0000      0.60000       2.0000      -1.8000       2.0000    
          1.0000       0.0000       2.0000       1.0000       0.0000    /
 '青银直流负  '     'CDC4T '        5.0000       5.0000      0.10000    
         0.10000      0.60000      0.65000       60.000       528.00    
         0.95000      0.10000       100.00       1000.0      0.30000    
         0.30000       100.00       200.00       1500.0       400.00    
          3000.0       600.00       4000.0      0.10000    /
 '青银直流正  '     'CDC4T '        5.0000       5.0000      0.10000    
         0.10000      0.60000      0.65000       60.000       528.00    
         0.95000      0.10000       100.00       1000.0      0.30000    
         0.30000       100.00       200.00       1500.0       400.00    
          3000.0       600.00       4000.0      0.10000    /
 '扎青直流低端'     'CDC4T '        5.0000       5.0000      0.10000    
         0.10000      0.60000      0.65000       60.000       640.00    
         0.95000      0.10000       150.00       1000.0      0.30000    
         0.30000       100.00       200.00       2000.0       500.00    
          4000.0       700.00       7000.0      0.10000    /
 '扎青直流高端'     'CDC4T '        5.0000       5.0000      0.10000    
         0.10000      0.60000      0.65000       60.000       640.00    
         0.95000      0.10000       150.00       1000.0      0.30000    
         0.30000       100.00       200.00       2000.0       500.00    
          4000.0       700.00       7000.0      0.10000    /
 '昭沂直流低端'     'CDC4T '        5.0000       5.0000      0.10000    
         0.10000      0.60000      0.65000       60.000       640.00    
         0.95000      0.10000       150.00       1000.0      0.30000    
         0.30000       100.00       200.00       2000.0       500.00    
          4000.0       700.00       7000.0      0.10000    /
 '昭沂直流高端'     'CDC4T '        5.0000       5.0000      0.10000    
         0.10000      0.60000      0.65000       60.000       640.00    
         0.95000      0.10000       150.00       1000.0      0.30000    
         0.30000       100.00       200.00       2000.0       500.00    
          4000.0       700.00       7000.0      0.10000    /
