    102 'GENROU' 1     6.5000      0.60000E-01  0.20000      0.50000E-01
          3.6000       0.0000       1.8000       1.7500      0.60000
         0.80000      0.15000      0.70000E-01  0.90000E-01  0.38000    /
    102 'SEXS'   1    0.10000       10.000       100.00      0.10000
          0.0000       5.0000    /
    102 'IEEEG1' 1          0           0        20.000       0.0000
          0.0000      0.12000      0.10000     -0.10000       1.0500
          0.0000      0.30000      0.30000       0.0000       7.0000
         0.40000       0.0000       1.0000      0.30000       0.0000
          1.0000       0.0000       0.0000    /
    104 'GENROU' 1     6.5000      0.60000E-01  0.20000      0.50000E-01
          2.5000       0.0000       1.8000       1.7500      0.60000
         0.80000      0.15000      0.70000E-01  0.90000E-01  0.38000    /
    104 'SEXS'   1    0.10000       10.000       100.00      0.10000
          0.0000       5.0000    /
    105 'GENROU' 1     6.5000      0.60000E-01  0.20000      0.50000E-01
          2.5000       0.0000       1.8000       1.7500      0.60000
         0.80000      0.15000      0.70000E-01  0.90000E-01  0.38000    /
    105 'SEXS'   1    0.10000       10.000       100.00      0.10000
          0.0000       5.0000    /
    111 'GENROU' 1     6.5000      0.60000E-01  0.20000      0.50000E-01
          2.5000       0.0000       1.8000       1.7500      0.60000
         0.80000      0.15000      0.70000E-01  0.90000E-01  0.38000    /
    111 'SEXS'   1    0.10000       10.000       100.00      0.10000
          0.0000       5.0000    /
    112 'GENROU' 1     6.5000      0.60000E-01  0.20000      0.50000E-01
          1.5000       0.0000       1.8000       1.7500      0.60000
         0.80000      0.15000      0.70000E-01  0.90000E-01  0.38000    /
    112 'SEXS'   1    0.10000       10.000       100.00      0.10000
          0.0000       5.0000    /
    112 'IEEEG1' 1          0           0        20.000       0.0000
          0.0000      0.12000      0.10000     -0.10000       1.0500
          0.0000      0.30000      0.30000       0.0000       7.0000
         0.40000       0.0000       1.0000      0.30000       0.0000
          1.0000       0.0000       0.0000    /
    114 'GENROU' 1     6.5000      0.60000E-01  0.20000      0.50000E-01
          3.0000       0.0000       1.8000       1.7500      0.60000
         0.80000      0.15000      0.70000E-01  0.90000E-01  0.38000    /
    114 'SEXS'   1    0.10000       10.000       100.00      0.10000
          0.0000       5.0000    /
    114 'IEEEG1' 1          0           0        20.000       0.0000
          0.0000      0.12000      0.10000     -0.10000       1.0500
          0.0000      0.30000      0.30000       0.0000       7.0000
         0.40000       0.0000       1.0000      0.30000       0.0000
          1.0000       0.0000       0.0000    /
    122 'GENROU' 1     6.5000      0.60000E-01  0.20000      0.50000E-01
          1.5000       0.0000       1.8000       1.7500      0.60000
         0.80000      0.15000      0.70000E-01  0.90000E-01  0.38000    /
    122 'SEXS'   1    0.10000       10.000       100.00      0.10000
          0.0000       5.0000    /
    122 'IEEEG1' 1          0           0        20.000       0.0000
          0.0000      0.12000      0.10000     -0.10000       1.0500
          0.0000      0.30000      0.30000       0.0000       7.0000
         0.40000       0.0000       1.0000      0.30000       0.0000
          1.0000       0.0000       0.0000    /
    128 'GENROU' 1     6.5000      0.60000E-01  0.20000      0.50000E-01
          1.5000       0.0000       1.8000       1.7500      0.60000
         0.80000      0.15000      0.70000E-01  0.90000E-01  0.38000    /
    128 'SEXS'   1    0.10000       10.000       100.00      0.10000
          0.0000       5.0000    /
    128 'IEEEG1' 1          0           0        20.000       0.0000
          0.0000      0.12000      0.10000     -0.10000       1.0500
          0.0000      0.30000      0.30000       0.0000       7.0000
         0.40000       0.0000       1.0000      0.30000       0.0000
          1.0000       0.0000       0.0000    /
    129 'GENROU' 1     6.5000      0.60000E-01  0.20000      0.50000E-01
          2.5000       0.0000       1.8000       1.7500      0.60000
         0.80000      0.15000      0.70000E-01  0.90000E-01  0.38000    /
    129 'SEXS'   1    0.10000       10.000       100.00      0.10000
          0.0000       5.0000    /
    129 'IEEEG1' 1          0           0        20.000       0.0000
          0.0000      0.12000      0.10000     -0.10000       1.0500
          0.0000      0.30000      0.30000       0.0000       7.0000
         0.40000       0.0000       1.0000      0.30000       0.0000
          1.0000       0.0000       0.0000    /
    139 'GENROU' 1     6.5000      0.60000E-01  0.20000      0.50000E-01
          2.5000       0.0000       1.8000       1.7500      0.60000
         0.80000      0.15000      0.70000E-01  0.90000E-01  0.38000    /
    139 'SEXS'   1    0.10000       10.000       100.00      0.10000
          0.0000       5.0000    /
    139 'IEEEG1' 1          0           0        20.000       0.0000
          0.0000      0.12000      0.10000     -0.10000       1.0500
          0.0000      0.30000      0.30000       0.0000       7.0000
         0.40000       0.0000       1.0000      0.30000       0.0000
          1.0000       0.0000       0.0000    /
    140 'GENROU' 1     6.5000      0.60000E-01  0.20000      0.50000E-01
          1.5000       0.0000       1.8000       1.7500      0.60000
         0.80000      0.15000      0.70000E-01  0.90000E-01  0.38000    /
    140 'SEXS'   1    0.10000       10.000       100.00      0.10000
          0.0000       5.0000    /
    140 'IEEEG1' 1          0           0        20.000       0.0000
          0.0000      0.12000      0.10000     -0.10000       1.0500
          0.0000      0.30000      0.30000       0.0000       7.0000
         0.40000       0.0000       1.0000      0.30000       0.0000
          1.0000       0.0000       0.0000    /
    143 'GENROU' 1     6.5000      0.60000E-01  0.20000      0.50000E-01
          1.5000       0.0000       1.8000       1.7500      0.60000
         0.80000      0.15000      0.70000E-01  0.90000E-01  0.38000    /
    143 'SEXS'   1    0.10000       10.000       100.00      0.10000
          0.0000       5.0000    /
    143 'IEEEG1' 1          0           0        20.000       0.0000
          0.0000      0.12000      0.10000     -0.10000       1.0500
          0.0000      0.30000      0.30000       0.0000       7.0000
         0.40000       0.0000       1.0000      0.30000       0.0000
          1.0000       0.0000       0.0000    /
    145 'GENROU' 1     6.5000      0.60000E-01  0.20000      0.50000E-01
          1.5000       0.0000       1.8000       1.7500      0.60000
         0.80000      0.15000      0.70000E-01  0.90000E-01  0.38000    /
    145 'SEXS'   1    0.10000       10.000       100.00      0.10000
          0.0000       5.0000    /
    156 'GENROU' 1     6.5000      0.60000E-01  0.20000      0.50000E-01
          4.0000       0.0000       1.8000       1.7500      0.60000
         0.80000      0.15000      0.70000E-01  0.90000E-01  0.38000    /
    156 'SEXS'   1    0.10000       10.000       100.00      0.10000
          0.0000       5.0000    /
    156 'IEEEG1' 1          0           0        20.000       0.0000
          0.0000      0.12000      0.10000     -0.10000       1.0500
          0.0000      0.30000      0.30000       0.0000       7.0000
         0.40000       0.0000       1.0000      0.30000       0.0000
          1.0000       0.0000       0.0000    /
    170 'GENROU' 1     6.5000      0.60000E-01  0.20000      0.50000E-01
          2.0000       0.0000       1.8000       1.7500      0.60000
         0.80000      0.15000      0.70000E-01  0.90000E-01  0.38000    /
    170 'SEXS'   1    0.10000       10.000       100.00      0.10000
          0.0000       5.0000    /
    170 'IEEEG1' 1          0           0        20.000       0.0000
          0.0000      0.12000      0.10000     -0.10000       1.0500
          0.0000      0.30000      0.30000       0.0000       7.0000
         0.40000       0.0000       1.0000      0.30000       0.0000
          1.0000       0.0000       0.0000    /
    175 'GENROU' 1     6.5000      0.60000E-01  0.20000      0.50000E-01
          4.0000       0.0000       1.8000       1.7500      0.60000
         0.80000      0.15000      0.70000E-01  0.90000E-01  0.38000    /
    175 'SEXS'   1    0.10000       10.000       100.00      0.10000
          0.0000       5.0000    /
    175 'IEEEG1' 1          0           0        20.000       0.0000
          0.0000      0.12000      0.10000     -0.10000       1.0500
          0.0000      0.30000      0.30000       0.0000       7.0000
         0.40000       0.0000       1.0000      0.30000       0.0000
          1.0000       0.0000       0.0000    /
    178 'GENROU' 1     6.5000      0.60000E-01  0.20000      0.50000E-01
          2.5000       0.0000       1.8000       1.7500      0.60000
         0.80000      0.15000      0.70000E-01  0.90000E-01  0.38000    /
    178 'SEXS'   1    0.10000       10.000       100.00      0.10000
          0.0000       5.0000    /
    178 'IEEEG1' 1          0           0        20.000       0.0000
          0.0000      0.12000      0.10000     -0.10000       1.0500
          0.0000      0.30000      0.30000       0.0000       7.0000
         0.40000       0.0000       1.0000      0.30000       0.0000
          1.0000       0.0000       0.0000    /
    183 'GENROU' 1     6.5000      0.60000E-01  0.20000      0.50000E-01
          2.5000       0.0000       1.8000       1.7500      0.60000
         0.80000      0.15000      0.70000E-01  0.90000E-01  0.38000    /
    183 'SEXS'   1    0.10000       10.000       100.00      0.10000
          0.0000       5.0000    /
    187 'GENROU' 1     6.5000      0.60000E-01  0.20000      0.50000E-01
          2.5000       0.0000       1.8000       1.7500      0.60000
         0.80000      0.15000      0.70000E-01  0.90000E-01  0.38000    /
    187 'SEXS'   1    0.10000       10.000       100.00      0.10000
          0.0000       5.0000    /
    187 'IEEEG1' 1          0           0        20.000       0.0000
          0.0000      0.12000      0.10000     -0.10000       1.0500
          0.0000      0.30000      0.30000       0.0000       7.0000
         0.40000       0.0000       1.0000      0.30000       0.0000
          1.0000       0.0000       0.0000    /
    191 'GENROU' 1     6.5000      0.60000E-01  0.20000      0.50000E-01
          2.5000       0.0000       1.8000       1.7500      0.60000
         0.80000      0.15000      0.70000E-01  0.90000E-01  0.38000    /
    191 'SEXS'   1    0.10000       10.000       100.00      0.10000
          0.0000       5.0000    /
    191 'IEEEG1' 1          0           0        20.000       0.0000
          0.0000      0.12000      0.10000     -0.10000       1.0500
          0.0000      0.30000      0.30000       0.0000       7.0000
         0.40000       0.0000       1.0000      0.30000       0.0000
          1.0000       0.0000       0.0000    /
    193 'GENROU' 1     6.5000      0.60000E-01  0.20000      0.50000E-01
          2.5000       0.0000       1.8000       1.7500      0.60000
         0.80000      0.15000      0.70000E-01  0.90000E-01  0.38000    /
    193 'SEXS'   1    0.10000       10.000       100.00      0.10000
          0.0000       5.0000    /
    193 'IEEEG1' 1          0           0        20.000       0.0000
          0.0000      0.12000      0.10000     -0.10000       1.0500
          0.0000      0.30000      0.30000       0.0000       7.0000
         0.40000       0.0000       1.0000      0.30000       0.0000
          1.0000       0.0000       0.0000    /
    194 'GENCLS' 1     6.0000       0.0000    /
    202 'GENCLS' 1     6.0000       0.0000    /
    302 'GENCLS' 1     6.0000       0.0000    /
      0 'IEELAL' *    0.40000       0.0000      0.60000      0.40000
          0.0000      0.60000       2.0000      -1.8000       2.0000
          1.0000       0.0000       2.0000       1.0000       0.0000    /
 '青银直流负  '     'CDC4T '        5.0000      17.0000      0.02000
         0.02000      0.60000      0.65000      0.10000       400.00
         0.80000      0.50000       100.00       1000.0       3.0000
         3.00000       100.00       200.00       1500.0       400.00
          3000.0       600.00       4000.0      0.10000    /
 '青银直流正  '     'CDC4T '        5.0000      17.0000      0.02000
         0.02000      0.60000      0.65000      0.10000       400.00
         0.80000      0.50000       100.00       1000.0       3.0000
         3.00000       100.00       200.00       1500.0       400.00
          3000.0       600.00       4000.0      0.10000    /
 '扎青直流低端'     'CDC4T '        5.0000      17.0000      0.02000
         0.02000      0.60000      0.65000      0.10000       500.00
         0.85000      0.10000        50.00       1000.0      3.00000
         3.00000       500.00       100.00       2000.0       375.00
          4000.0       750.00       6500.0      0.10000    /
 '扎青直流高端'     'CDC4T '        5.0000      17.0000      0.02000
         0.02000      0.60000      0.65000      0.10000       500.00
         0.85000      0.10000        50.00       1000.0      3.00000
         3.00000       500.00       100.00       2000.0       375.00
          4000.0       750.00       6500.0      0.10000    /
 '昭沂直流低端'     'CDC4T '        5.0000      17.0000      0.02000
         0.02000      0.60000      0.65000      0.10000       500.00
         0.85000      0.10000        50.00       1000.0      3.00000
         3.00000       500.00       100.00       2000.0       375.00
          4000.0       750.00       6500.0      0.10000    /
 '昭沂直流高端'     'CDC4T '        5.0000      17.0000      0.02000
         0.02000      0.60000      0.65000      0.10000       500.00
         0.85000      0.10000        50.00       1000.0      3.00000
         3.00000       500.00       100.00       2000.0       375.00
          4000.0       750.00       6500.0      0.10000    /
