      4 'GENROU' 1     4.8000      0.35000E-01   1.5000      0.70000E-01
          3.2000       0.0000       1.8000       1.7500      0.30000    
         0.47000      0.23000      0.15000      0.10000      0.40000    /
      4 'IEEET1' 1    0.60000E-01   40.000      0.10000       1.0000    
         -1.0000     -0.60000E-01  0.67000      0.12000       1.0000    
          0.0000       3.0000      0.90000E-01   4.0000      0.36800    /
      6 'GENROU' 1     4.8000      0.35000E-01   1.5000      0.70000E-01
          3.2000       0.0000       1.8000       1.7500      0.30000    
         0.47000      0.23000      0.15000      0.10000      0.40000    /
      6 'IEEET1' 1    0.60000E-01   40.000      0.10000       1.0000    
         -1.0000     -0.60000E-01  0.67000      0.12000       1.0000    
          0.0000       3.0000      0.90000E-01   4.0000      0.36800    /
     15 'GENROU' 1     4.8000      0.35000E-01   1.5000      0.70000E-01
          3.2000       0.0000       1.8000       1.7500      0.30000    
         0.47000      0.23000      0.15000      0.10000      0.40000    /
     15 'IEEET1' 1    0.60000E-01   40.000      0.10000       1.0000    
         -1.0000     -0.60000E-01  0.67000      0.12000       1.0000    
          0.0000       3.0000      0.90000E-01   4.0000      0.36800    /
     18 'GENROU' 1     4.8000      0.35000E-01   1.5000      0.70000E-01
          3.2000       0.0000       1.8000       1.7500      0.30000    
         0.47000      0.23000      0.15000      0.10000      0.40000    /
     18 'IEEET1' 1    0.60000E-01   40.000      0.10000       1.0000    
         -1.0000     -0.60000E-01  0.67000      0.12000       1.0000    
          0.0000       3.0000      0.90000E-01   4.0000      0.36800    /
     26 'GENROU' 1     4.8000      0.35000E-01   1.5000      0.70000E-01
          3.2000       0.0000       1.8000       1.7500      0.30000    
         0.47000      0.23000      0.15000      0.10000      0.40000    /
     26 'IEEET1' 1    0.60000E-01   40.000      0.10000       1.0000    
         -1.0000     -0.60000E-01  0.67000      0.12000       1.0000    
          0.0000       3.0000      0.90000E-01   4.0000      0.36800    /
     27 'GENROU' 1     4.8000      0.35000E-01   1.5000      0.70000E-01
          3.2000       0.0000       1.8000       1.7500      0.30000    
         0.47000      0.23000      0.15000      0.10000      0.40000    /
     27 'IEEET1' 1    0.60000E-01   40.000      0.10000       1.0000    
         -1.0000     -0.60000E-01  0.67000      0.12000       1.0000    
          0.0000       3.0000      0.90000E-01   4.0000      0.36800    /
     41 'GENROU' 1     4.8000      0.35000E-01   1.5000      0.70000E-01
          3.2000       0.0000       1.8000       1.7500      0.30000    
         0.47000      0.23000      0.15000      0.10000      0.40000    /
     41 'IEEET1' 1    0.60000E-01   40.000      0.10000       1.0000    
         -1.0000     -0.60000E-01  0.67000      0.12000       1.0000    
          0.0000       3.0000      0.90000E-01   4.0000      0.36800    /
     44 'GENROU' 1     4.8000      0.35000E-01   1.5000      0.70000E-01
          3.2000       0.0000       1.8000       1.7500      0.30000    
         0.47000      0.23000      0.15000      0.10000      0.40000    /
     44 'IEEET1' 1    0.60000E-01   40.000      0.10000       1.0000    
         -1.0000     -0.60000E-01  0.67000      0.12000       1.0000    
          0.0000       3.0000      0.90000E-01   4.0000      0.36800    /
     51 'GENROU' 1     4.8000      0.35000E-01   1.5000      0.70000E-01
          3.2000       0.0000       1.8000       1.7500      0.30000    
         0.47000      0.23000      0.15000      0.10000      0.40000    /
     51 'IEEET1' 1    0.60000E-01   40.000      0.10000       1.0000    
         -1.0000     -0.60000E-01  0.67000      0.12000       1.0000    
          0.0000       3.0000      0.90000E-01   4.0000      0.36800    /
     53 'GENROU' 1     4.8000      0.35000E-01   1.5000      0.70000E-01
          3.2000       0.0000       1.8000       1.7500      0.30000    
         0.47000      0.23000      0.15000      0.10000      0.40000    /
     53 'IEEET1' 1    0.60000E-01   40.000      0.10000       1.0000    
         -1.0000     -0.60000E-01  0.67000      0.12000       1.0000    
          0.0000       3.0000      0.90000E-01   4.0000      0.36800    /
     54 'GENROU' 1     4.8000      0.35000E-01   1.5000      0.70000E-01
          3.2000       0.0000       1.8000       1.7500      0.30000    
         0.47000      0.23000      0.15000      0.10000      0.40000    /
     54 'IEEET1' 1    0.60000E-01   40.000      0.10000       1.0000    
         -1.0000     -0.60000E-01  0.67000      0.12000       1.0000    
          0.0000       3.0000      0.90000E-01   4.0000      0.36800    /
     56 'GENROU' 1     4.8000      0.35000E-01   1.5000      0.70000E-01
          3.2000       0.0000       1.8000       1.7500      0.30000    
         0.47000      0.23000      0.15000      0.10000      0.40000    /
     56 'IEEET1' 1    0.60000E-01   40.000      0.10000       1.0000    
         -1.0000     -0.60000E-01  0.67000      0.12000       1.0000    
          0.0000       3.0000      0.90000E-01   4.0000      0.36800    /
     57 'GENROU' 1     4.8000      0.35000E-01   1.5000      0.70000E-01
          3.2000       0.0000       1.8000       1.7500      0.30000    
         0.47000      0.23000      0.15000      0.10000      0.40000    /
     57 'IEEET1' 1    0.60000E-01   40.000      0.10000       1.0000    
         -1.0000     -0.60000E-01  0.67000      0.12000       1.0000    
          0.0000       3.0000      0.90000E-01   4.0000      0.36800    /
     58 'GENROU' 1     4.8000      0.35000E-01   1.5000      0.70000E-01
          3.2000       0.0000       1.8000       1.7500      0.30000    
         0.47000      0.23000      0.15000      0.10000      0.40000    /
     58 'IEEET1' 1    0.60000E-01   40.000      0.10000       1.0000    
         -1.0000     -0.60000E-01  0.67000      0.12000       1.0000    
          0.0000       3.0000      0.90000E-01   4.0000      0.36800    /
     63 'GENROU' 1     4.8000      0.35000E-01   1.5000      0.70000E-01
          3.2000       0.0000       1.8000       1.7500      0.30000    
         0.47000      0.23000      0.15000      0.10000      0.40000    /
     63 'IEEET1' 1    0.60000E-01   40.000      0.10000       1.0000    
         -1.0000     -0.60000E-01  0.67000      0.12000       1.0000    
          0.0000       3.0000      0.90000E-01   4.0000      0.36800    /
     69 'GENROU' 1     4.8000      0.35000E-01   1.5000      0.70000E-01
          3.2000       0.0000       1.8000       1.7500      0.30000    
         0.47000      0.23000      0.15000      0.10000      0.40000    /
     69 'IEEET1' 1    0.60000E-01   40.000      0.10000       1.0000    
         -1.0000     -0.60000E-01  0.67000      0.12000       1.0000    
          0.0000       3.0000      0.90000E-01   4.0000      0.36800    /
     79 'GENROU' 1     4.8000      0.35000E-01   1.5000      0.70000E-01
          3.2000       0.0000       1.8000       1.7500      0.30000    
         0.47000      0.23000      0.15000      0.10000      0.40000    /
     79 'IEEET1' 1    0.60000E-01   40.000      0.10000       1.0000    
         -1.0000     -0.60000E-01  0.67000      0.12000       1.0000    
          0.0000       3.0000      0.90000E-01   4.0000      0.36800    /
     80 'GENROU' 1     4.8000      0.35000E-01   1.5000      0.70000E-01
          3.2000       0.0000       1.8000       1.7500      0.30000    
         0.47000      0.23000      0.15000      0.10000      0.40000    /
     80 'IEEET1' 1    0.60000E-01   40.000      0.10000       1.0000    
         -1.0000     -0.60000E-01  0.67000      0.12000       1.0000    
          0.0000       3.0000      0.90000E-01   4.0000      0.36800    /
     81 'GENROU' 1     4.8000      0.35000E-01   1.5000      0.70000E-01
          3.2000       0.0000       1.8000       1.7500      0.30000    
         0.47000      0.23000      0.15000      0.10000      0.40000    /
     81 'IEEET1' 1    0.60000E-01   40.000      0.10000       1.0000    
         -1.0000     -0.60000E-01  0.67000      0.12000       1.0000    
          0.0000       3.0000      0.90000E-01   4.0000      0.36800    /
     84 'GENROU' 1     4.8000      0.35000E-01   1.5000      0.70000E-01
          3.2000       0.0000       1.8000       1.7500      0.30000    
         0.47000      0.23000      0.15000      0.10000      0.40000    /
     84 'IEEET1' 1    0.60000E-01   40.000      0.10000       1.0000    
         -1.0000     -0.60000E-01  0.67000      0.12000       1.0000    
          0.0000       3.0000      0.90000E-01   4.0000      0.36800    /
     86 'GENROU' 1     4.8000      0.35000E-01   1.5000      0.70000E-01
          3.2000       0.0000       1.8000       1.7500      0.30000    
         0.47000      0.23000      0.15000      0.10000      0.40000    /
     86 'IEEET1' 1    0.60000E-01   40.000      0.10000       1.0000    
         -1.0000     -0.60000E-01  0.67000      0.12000       1.0000    
          0.0000       3.0000      0.90000E-01   4.0000      0.36800    /
     91 'GENROU' 1     4.8000      0.35000E-01   1.5000      0.70000E-01
          3.2000       0.0000       1.8000       1.7500      0.30000    
         0.47000      0.23000      0.15000      0.10000      0.40000    /
     91 'IEEET1' 1    0.60000E-01   40.000      0.10000       1.0000    
         -1.0000     -0.60000E-01  0.67000      0.12000       1.0000    
          0.0000       3.0000      0.90000E-01   4.0000      0.36800    /
     96 'GENROU' 1     4.8000      0.35000E-01   1.5000      0.70000E-01
          3.2000       0.0000       1.8000       1.7500      0.30000    
         0.47000      0.23000      0.15000      0.10000      0.40000    /
     96 'IEEET1' 1    0.60000E-01   40.000      0.10000       1.0000    
         -1.0000     -0.60000E-01  0.67000      0.12000       1.0000    
          0.0000       3.0000      0.90000E-01   4.0000      0.36800    /
     98 'GENROU' 1     4.8000      0.35000E-01   1.5000      0.70000E-01
          3.2000       0.0000       1.8000       1.7500      0.30000    
         0.47000      0.23000      0.15000      0.10000      0.40000    /
     98 'IEEET1' 1    0.60000E-01   40.000      0.10000       1.0000    
         -1.0000     -0.60000E-01  0.67000      0.12000       1.0000    
          0.0000       3.0000      0.90000E-01   4.0000      0.36800    /
    104 'GENROU' 1     4.8000      0.35000E-01   1.5000      0.70000E-01
          3.2000       0.0000       1.8000       1.7500      0.30000    
         0.47000      0.23000      0.15000      0.10000      0.40000    /
    104 'IEEET1' 1    0.60000E-01   40.000      0.10000       1.0000    
         -1.0000     -0.60000E-01  0.67000      0.12000       1.0000    
          0.0000       3.0000      0.90000E-01   4.0000      0.36800    /
    107 'GENROU' 1     4.8000      0.35000E-01   1.5000      0.70000E-01
          3.2000       0.0000       1.8000       1.7500      0.30000    
         0.47000      0.23000      0.15000      0.10000      0.40000    /
    107 'IEEET1' 1    0.60000E-01   40.000      0.10000       1.0000    
         -1.0000     -0.60000E-01  0.67000      0.12000       1.0000    
          0.0000       3.0000      0.90000E-01   4.0000      0.36800    /
    108 'GENROU' 1     4.8000      0.35000E-01   1.5000      0.70000E-01
          3.2000       0.0000       1.8000       1.7500      0.30000    
         0.47000      0.23000      0.15000      0.10000      0.40000    /
    108 'IEEET1' 1    0.60000E-01   40.000      0.10000       1.0000    
         -1.0000     -0.60000E-01  0.67000      0.12000       1.0000    
          0.0000       3.0000      0.90000E-01   4.0000      0.36800    /
    109 'GENROU' 1     4.8000      0.35000E-01   1.5000      0.70000E-01
          3.2000       0.0000       1.8000       1.7500      0.30000    
         0.47000      0.23000      0.15000      0.10000      0.40000    /
    109 'IEEET1' 1    0.60000E-01   40.000      0.10000       1.0000    
         -1.0000     -0.60000E-01  0.67000      0.12000       1.0000    
          0.0000       3.0000      0.90000E-01   4.0000      0.36800    /
    115 'GENROU' 1     4.8000      0.35000E-01   1.5000      0.70000E-01
          3.2000       0.0000       1.8000       1.7500      0.30000    
         0.47000      0.23000      0.15000      0.10000      0.40000    /
    115 'IEEET1' 1    0.60000E-01   40.000      0.10000       1.0000    
         -1.0000     -0.60000E-01  0.67000      0.12000       1.0000    
          0.0000       3.0000      0.90000E-01   4.0000      0.36800    /
    117 'GENROU' 1     4.8000      0.35000E-01   1.5000      0.70000E-01
          3.2000       0.0000       1.8000       1.7500      0.30000    
         0.47000      0.23000      0.15000      0.10000      0.40000    /
    117 'IEEET1' 1    0.60000E-01   40.000      0.10000       1.0000    
         -1.0000     -0.60000E-01  0.67000      0.12000       1.0000    
          0.0000       3.0000      0.90000E-01   4.0000      0.36800    /
    118 'GENROU' 1     4.8000      0.35000E-01   1.5000      0.70000E-01
          3.2000       0.0000       1.8000       1.7500      0.30000    
         0.47000      0.23000      0.15000      0.10000      0.40000    /
    118 'IEEET1' 1    0.60000E-01   40.000      0.10000       1.0000    
         -1.0000     -0.60000E-01  0.67000      0.12000       1.0000    
          0.0000       3.0000      0.90000E-01   4.0000      0.36800    /
    122 'GENROU' 1     4.8000      0.35000E-01   1.5000      0.70000E-01
          3.2000       0.0000       1.8000       1.7500      0.30000    
         0.47000      0.23000      0.15000      0.10000      0.40000    /
    122 'IEEET1' 1    0.60000E-01   40.000      0.10000       1.0000    
         -1.0000     -0.60000E-01  0.67000      0.12000       1.0000    
          0.0000       3.0000      0.90000E-01   4.0000      0.36800    /
    128 'GENROU' 1     4.8000      0.35000E-01   1.5000      0.70000E-01
          3.2000       0.0000       1.8000       1.7500      0.30000    
         0.47000      0.23000      0.15000      0.10000      0.40000    /
    128 'IEEET1' 1    0.60000E-01   40.000      0.10000       1.0000    
         -1.0000     -0.60000E-01  0.67000      0.12000       1.0000    
          0.0000       3.0000      0.90000E-01   4.0000      0.36800    /
    131 'GENROU' 1     4.8000      0.35000E-01   1.5000      0.70000E-01
          3.2000       0.0000       1.8000       1.7500      0.30000    
         0.47000      0.23000      0.15000      0.10000      0.40000    /
    131 'IEEET1' 1    0.60000E-01   40.000      0.10000       1.0000    
         -1.0000     -0.60000E-01  0.67000      0.12000       1.0000    
          0.0000       3.0000      0.90000E-01   4.0000      0.36800    /
    133 'GENROU' 1     4.8000      0.35000E-01   1.5000      0.70000E-01
          3.2000       0.0000       1.8000       1.7500      0.30000    
         0.47000      0.23000      0.15000      0.10000      0.40000    /
    133 'IEEET1' 1    0.60000E-01   40.000      0.10000       1.0000    
         -1.0000     -0.60000E-01  0.67000      0.12000       1.0000    
          0.0000       3.0000      0.90000E-01   4.0000      0.36800    /
    134 'GENROU' 1     4.8000      0.35000E-01   1.5000      0.70000E-01
          3.2000       0.0000       1.8000       1.7500      0.30000    
         0.47000      0.23000      0.15000      0.10000      0.40000    /
    134 'IEEET1' 1    0.60000E-01   40.000      0.10000       1.0000    
         -1.0000     -0.60000E-01  0.67000      0.12000       1.0000    
          0.0000       3.0000      0.90000E-01   4.0000      0.36800    /
    136 'GENROU' 1     4.8000      0.35000E-01   1.5000      0.70000E-01
          3.2000       0.0000       1.8000       1.7500      0.30000    
         0.47000      0.23000      0.15000      0.10000      0.40000    /
    136 'IEEET1' 1    0.60000E-01   40.000      0.10000       1.0000    
         -1.0000     -0.60000E-01  0.67000      0.12000       1.0000    
          0.0000       3.0000      0.90000E-01   4.0000      0.36800    /
    137 'GENROU' 1     4.8000      0.35000E-01   1.5000      0.70000E-01
          3.2000       0.0000       1.8000       1.7500      0.30000    
         0.47000      0.23000      0.15000      0.10000      0.40000    /
    137 'IEEET1' 1    0.60000E-01   40.000      0.10000       1.0000    
         -1.0000     -0.60000E-01  0.67000      0.12000       1.0000    
          0.0000       3.0000      0.90000E-01   4.0000      0.36800    /
    141 'GENROU' 1     4.8000      0.35000E-01   1.5000      0.70000E-01
          3.2000       0.0000       1.8000       1.7500      0.30000    
         0.47000      0.23000      0.15000      0.10000      0.40000    /
    141 'IEEET1' 1    0.60000E-01   40.000      0.10000       1.0000    
         -1.0000     -0.60000E-01  0.67000      0.12000       1.0000    
          0.0000       3.0000      0.90000E-01   4.0000      0.36800    /
    149 'GENROU' 1     4.8000      0.35000E-01   1.5000      0.70000E-01
          3.2000       0.0000       1.8000       1.7500      0.30000    
         0.47000      0.23000      0.15000      0.10000      0.40000    /
    149 'IEEET1' 1    0.60000E-01   40.000      0.10000       1.0000    
         -1.0000     -0.60000E-01  0.67000      0.12000       1.0000    
          0.0000       3.0000      0.90000E-01   4.0000      0.36800    /
    164 'GENROU' 1     4.8000      0.35000E-01   1.5000      0.70000E-01
          3.2000       0.0000       1.8000       1.7500      0.30000    
         0.47000      0.23000      0.15000      0.10000      0.40000    /
    164 'IEEET1' 1    0.60000E-01   40.000      0.10000       1.0000    
         -1.0000     -0.60000E-01  0.67000      0.12000       1.0000    
          0.0000       3.0000      0.90000E-01   4.0000      0.36800    /
    170 'GENROU' 1     4.8000      0.35000E-01   1.5000      0.70000E-01
          3.2000       0.0000       1.8000       1.7500      0.30000    
         0.47000      0.23000      0.15000      0.10000      0.40000    /
    170 'IEEET1' 1    0.60000E-01   40.000      0.10000       1.0000    
         -1.0000     -0.60000E-01  0.67000      0.12000       1.0000    
          0.0000       3.0000      0.90000E-01   4.0000      0.36800    /
    171 'GENROU' 1     4.8000      0.35000E-01   1.5000      0.70000E-01
          3.2000       0.0000       1.8000       1.7500      0.30000    
         0.47000      0.23000      0.15000      0.10000      0.40000    /
    171 'IEEET1' 1    0.60000E-01   40.000      0.10000       1.0000    
         -1.0000     -0.60000E-01  0.67000      0.12000       1.0000    
          0.0000       3.0000      0.90000E-01   4.0000      0.36800    /
    177 'GENROU' 1     4.8000      0.35000E-01   1.5000      0.70000E-01
          3.2000       0.0000       1.8000       1.7500      0.30000    
         0.47000      0.23000      0.15000      0.10000      0.40000    /
    177 'IEEET1' 1    0.60000E-01   40.000      0.10000       1.0000    
         -1.0000     -0.60000E-01  0.67000      0.12000       1.0000    
          0.0000       3.0000      0.90000E-01   4.0000      0.36800    /
    181 'GENROU' 1     4.8000      0.35000E-01   1.5000      0.70000E-01
          3.2000       0.0000       1.8000       1.7500      0.30000    
         0.47000      0.23000      0.15000      0.10000      0.40000    /
    181 'IEEET1' 1    0.60000E-01   40.000      0.10000       1.0000    
         -1.0000     -0.60000E-01  0.67000      0.12000       1.0000    
          0.0000       3.0000      0.90000E-01   4.0000      0.36800    /
    182 'GENROU' 1     4.8000      0.35000E-01   1.5000      0.70000E-01
          3.2000       0.0000       1.8000       1.7500      0.30000    
         0.47000      0.23000      0.15000      0.10000      0.40000    /
    182 'IEEET1' 1    0.60000E-01   40.000      0.10000       1.0000    
         -1.0000     -0.60000E-01  0.67000      0.12000       1.0000    
          0.0000       3.0000      0.90000E-01   4.0000      0.36800    /
    183 'GENROU' 1     4.8000      0.35000E-01   1.5000      0.70000E-01
          3.2000       0.0000       1.8000       1.7500      0.30000    
         0.47000      0.23000      0.15000      0.10000      0.40000    /
    183 'IEEET1' 1    0.60000E-01   40.000      0.10000       1.0000    
         -1.0000     -0.60000E-01  0.67000      0.12000       1.0000    
          0.0000       3.0000      0.90000E-01   4.0000      0.36800    /
    187 'GENROU' 1     4.8000      0.35000E-01   1.5000      0.70000E-01
          3.2000       0.0000       1.8000       1.7500      0.30000    
         0.47000      0.23000      0.15000      0.10000      0.40000    /
    187 'IEEET1' 1    0.60000E-01   40.000      0.10000       1.0000    
         -1.0000     -0.60000E-01  0.67000      0.12000       1.0000    
          0.0000       3.0000      0.90000E-01   4.0000      0.36800    /
    188 'GENROU' 1     4.8000      0.35000E-01   1.5000      0.70000E-01
          3.2000       0.0000       1.8000       1.7500      0.30000    
         0.47000      0.23000      0.15000      0.10000      0.40000    /
    188 'IEEET1' 1    0.60000E-01   40.000      0.10000       1.0000    
         -1.0000     -0.60000E-01  0.67000      0.12000       1.0000    
          0.0000       3.0000      0.90000E-01   4.0000      0.36800    /
    189 'GENROU' 1     4.8000      0.35000E-01   1.5000      0.70000E-01
          3.2000       0.0000       1.8000       1.7500      0.30000    
         0.47000      0.23000      0.15000      0.10000      0.40000    /
    189 'IEEET1' 1    0.60000E-01   40.000      0.10000       1.0000    
         -1.0000     -0.60000E-01  0.67000      0.12000       1.0000    
          0.0000       3.0000      0.90000E-01   4.0000      0.36800    /
    193 'GENROU' 1     4.8000      0.35000E-01   1.5000      0.70000E-01
          3.2000       0.0000       1.8000       1.7500      0.30000    
         0.47000      0.23000      0.15000      0.10000      0.40000    /
    193 'IEEET1' 1    0.60000E-01   40.000      0.10000       1.0000    
         -1.0000     -0.60000E-01  0.67000      0.12000       1.0000    
          0.0000       3.0000      0.90000E-01   4.0000      0.36800    /
    196 'GENROU' 1     4.8000      0.35000E-01   1.5000      0.70000E-01
          3.2000       0.0000       1.8000       1.7500      0.30000    
         0.47000      0.23000      0.15000      0.10000      0.40000    /
    196 'IEEET1' 1    0.60000E-01   40.000      0.10000       1.0000    
         -1.0000     -0.60000E-01  0.67000      0.12000       1.0000    
          0.0000       3.0000      0.90000E-01   4.0000      0.36800    /
    197 'GENROU' 1     4.8000      0.35000E-01   1.5000      0.70000E-01
          3.2000       0.0000       1.8000       1.7500      0.30000    
         0.47000      0.23000      0.15000      0.10000      0.40000    /
    197 'IEEET1' 1    0.60000E-01   40.000      0.10000       1.0000    
         -1.0000     -0.60000E-01  0.67000      0.12000       1.0000    
          0.0000       3.0000      0.90000E-01   4.0000      0.36800    /
    202 'GENROU' 1     4.8000      0.35000E-01   1.5000      0.70000E-01
          3.2000       0.0000       1.8000       1.7500      0.30000    
         0.47000      0.23000      0.15000      0.10000      0.40000    /
    202 'IEEET1' 1    0.60000E-01   40.000      0.10000       1.0000    
         -1.0000     -0.60000E-01  0.67000      0.12000       1.0000    
          0.0000       3.0000      0.90000E-01   4.0000      0.36800    /
    206 'GENROU' 1     4.8000      0.35000E-01   1.5000      0.70000E-01
          3.2000       0.0000       1.8000       1.7500      0.30000    
         0.47000      0.23000      0.15000      0.10000      0.40000    /
    206 'IEEET1' 1    0.60000E-01   40.000      0.10000       1.0000    
         -1.0000     -0.60000E-01  0.67000      0.12000       1.0000    
          0.0000       3.0000      0.90000E-01   4.0000      0.36800    /
    211 'GENROU' 1     4.8000      0.35000E-01   1.5000      0.70000E-01
          3.2000       0.0000       1.8000       1.7500      0.30000    
         0.47000      0.23000      0.15000      0.10000      0.40000    /
    211 'IEEET1' 1    0.60000E-01   40.000      0.10000       1.0000    
         -1.0000     -0.60000E-01  0.67000      0.12000       1.0000    
          0.0000       3.0000      0.90000E-01   4.0000      0.36800    /
    214 'GENROU' 1     4.8000      0.35000E-01   1.5000      0.70000E-01
          3.2000       0.0000       1.8000       1.7500      0.30000    
         0.47000      0.23000      0.15000      0.10000      0.40000    /
    214 'IEEET1' 1    0.60000E-01   40.000      0.10000       1.0000    
         -1.0000     -0.60000E-01  0.67000      0.12000       1.0000    
          0.0000       3.0000      0.90000E-01   4.0000      0.36800    /
    216 'GENROU' 1     4.8000      0.35000E-01   1.5000      0.70000E-01
          3.2000       0.0000       1.8000       1.7500      0.30000    
         0.47000      0.23000      0.15000      0.10000      0.40000    /
    216 'IEEET1' 1    0.60000E-01   40.000      0.10000       1.0000    
         -1.0000     -0.60000E-01  0.67000      0.12000       1.0000    
          0.0000       3.0000      0.90000E-01   4.0000      0.36800    /
    217 'GENROU' 1     4.8000      0.35000E-01   1.5000      0.70000E-01
          3.2000       0.0000       1.8000       1.7500      0.30000    
         0.47000      0.23000      0.15000      0.10000      0.40000    /
    217 'IEEET1' 1    0.60000E-01   40.000      0.10000       1.0000    
         -1.0000     -0.60000E-01  0.67000      0.12000       1.0000    
          0.0000       3.0000      0.90000E-01   4.0000      0.36800    /
    219 'GENROU' 1     4.8000      0.35000E-01   1.5000      0.70000E-01
          3.2000       0.0000       1.8000       1.7500      0.30000    
         0.47000      0.23000      0.15000      0.10000      0.40000    /
    219 'IEEET1' 1    0.60000E-01   40.000      0.10000       1.0000    
         -1.0000     -0.60000E-01  0.67000      0.12000       1.0000    
          0.0000       3.0000      0.90000E-01   4.0000      0.36800    /
    226 'GENROU' 1     4.8000      0.35000E-01   1.5000      0.70000E-01
          3.2000       0.0000       1.8000       1.7500      0.30000    
         0.47000      0.23000      0.15000      0.10000      0.40000    /
    226 'IEEET1' 1    0.60000E-01   40.000      0.10000       1.0000    
         -1.0000     -0.60000E-01  0.67000      0.12000       1.0000    
          0.0000       3.0000      0.90000E-01   4.0000      0.36800    /
    237 'GENROU' 1     4.8000      0.35000E-01   1.5000      0.70000E-01
          3.2000       0.0000       1.8000       1.7500      0.30000    
         0.47000      0.23000      0.15000      0.10000      0.40000    /
    237 'IEEET1' 1    0.60000E-01   40.000      0.10000       1.0000    
         -1.0000     -0.60000E-01  0.67000      0.12000       1.0000    
          0.0000       3.0000      0.90000E-01   4.0000      0.36800    /
    243 'GENROU' 1     4.8000      0.35000E-01   1.5000      0.70000E-01
          3.2000       0.0000       1.8000       1.7500      0.30000    
         0.47000      0.23000      0.15000      0.10000      0.40000    /
    243 'IEEET1' 1    0.60000E-01   40.000      0.10000       1.0000    
         -1.0000     -0.60000E-01  0.67000      0.12000       1.0000    
          0.0000       3.0000      0.90000E-01   4.0000      0.36800    /
    253 'GENROU' 1     4.8000      0.35000E-01   1.5000      0.70000E-01
          3.2000       0.0000       1.8000       1.7500      0.30000    
         0.47000      0.23000      0.15000      0.10000      0.40000    /
    253 'IEEET1' 1    0.60000E-01   40.000      0.10000       1.0000    
         -1.0000     -0.60000E-01  0.67000      0.12000       1.0000    
          0.0000       3.0000      0.90000E-01   4.0000      0.36800    /
    265 'GENROU' 1     4.8000      0.35000E-01   1.5000      0.70000E-01
          3.2000       0.0000       1.8000       1.7500      0.30000    
         0.47000      0.23000      0.15000      0.10000      0.40000    /
    265 'IEEET1' 1    0.60000E-01   40.000      0.10000       1.0000    
         -1.0000     -0.60000E-01  0.67000      0.12000       1.0000    
          0.0000       3.0000      0.90000E-01   4.0000      0.36800    /
    271 'GENROU' 1     4.8000      0.35000E-01   1.5000      0.70000E-01
          3.2000       0.0000       1.8000       1.7500      0.30000    
         0.47000      0.23000      0.15000      0.10000      0.40000    /
    271 'IEEET1' 1    0.60000E-01   40.000      0.10000       1.0000    
         -1.0000     -0.60000E-01  0.67000      0.12000       1.0000    
          0.0000       3.0000      0.90000E-01   4.0000      0.36800    /
    272 'GENROU' 1     4.8000      0.35000E-01   1.5000      0.70000E-01
          3.2000       0.0000       1.8000       1.7500      0.30000    
         0.47000      0.23000      0.15000      0.10000      0.40000    /
    272 'IEEET1' 1    0.60000E-01   40.000      0.10000       1.0000    
         -1.0000     -0.60000E-01  0.67000      0.12000       1.0000    
          0.0000       3.0000      0.90000E-01   4.0000      0.36800    /
    274 'GENROU' 1     4.8000      0.35000E-01   1.5000      0.70000E-01