    102 'GENCLS' 1     3.6000       0.0000/
    104 'GENCLS' 1     2.5000       0.0000/
    105 'GENCLS' 1     2.5000       0.0000/
    111 'GENCLS' 1     2.5000       0.0000/
    112 'GENCLS' 1     1.5000       0.0000/
    114 'GENCLS' 1     3.0000       0.0000/
    122 'GENCLS' 1     1.5000       0.0000/
    128 'GENCLS' 1     1.5000       0.0000/
    129 'GENCLS' 1     2.5000       0.0000/
    139 'GENCLS' 1     2.5000       0.0000/
    140 'GENCLS' 1     1.5000       0.0000/
    143 'GENCLS' 1     1.5000       0.0000/
    145 'GENCLS' 1     1.5000       0.0000/
    156 'GENCLS' 1     4.0000       0.0000/
    170 'GENCLS' 1     2.0000       0.0000/
    175 'GENCLS' 1     4.0000       0.0000/
    178 'GENCLS' 1     2.5000       0.0000/
    183 'GENCLS' 1     2.5000       0.0000/
    187 'GENCLS' 1     2.5000       0.0000/
    191 'GENCLS' 1     2.5000       0.0000/
    193 'GENCLS' 1     2.5000       0.0000/
    194 'GENCLS' 1     6.0000       0.0000    /
    202 'GENCLS' 1     6.0000       0.0000    /
    302 'GENCLS' 1     6.0000       0.0000    /
 '青银直流负  '     'CDC4T '        5.0000       5.0000      0.10000
         0.10000      0.70000      0.80000      0.50000       500.00
         0.80000      0.50000       100.00       1000.0      0.30000
         0.30000       100.00       200.00       1500.0       400.00
          3000.0       600.00       4000.0      0.10000    /
 '青银直流正  '     'CDC4T '        5.0000       5.0000      0.10000
         0.10000      0.70000      0.80000      0.50000       500.00
         0.80000      0.50000       100.00       1000.0      0.30000
         0.30000       100.00       200.00       1500.0       400.00
          3000.0       600.00       4000.0      0.10000    /
 '扎青直流高端'     'CDC4T '        5.0000       5.0000      0.10000
         0.10000      0.70000      0.80000      0.50000       600.00
         0.80000      0.50000       150.00       1000.0      0.30000
         0.30000       100.00       200.00       2000.0       500.00
          4000.0       700.00       7000.0      0.10000    /
 '扎青直流低端'     'CDC4T '        5.0000       5.0000      0.10000
         0.10000      0.70000      0.80000      0.50000       600.00
         0.80000      0.50000       150.00       1000.0      0.30000
         0.30000       100.00       200.00       2000.0       500.00
          4000.0       700.00       7000.0      0.10000    /
 '昭沂直流高端'     'CDC4T '        5.0000       5.0000      0.10000
         0.10000      0.70000      0.80000      0.50000       600.00
         0.80000      0.50000       150.00       1000.0      0.30000
         0.30000       100.00       200.00       2000.0       500.00
          4000.0       700.00       7000.0      0.10000    /
 '昭沂直流低端'     'CDC4T '        5.0000       5.0000      0.10000
         0.10000      0.70000      0.80000      0.50000       600.00
         0.80000      0.50000       150.00       1000.0      0.30000
         0.30000       100.00       200.00       2000.0       500.00
          4000.0       700.00       7000.0      0.10000    /
      0 'IEELAL' *    0.40000       0.0000      0.60000      0.40000    
          0.0000      0.60000       2.0000      -1.8000       2.0000    
          1.0000       0.0000       2.0000       1.0000       0.0000    /
