      30,     'SEXS',    '1',     0.25,        4,      200,     0.02,     -4.6,        6 /
      30,   'IEEEG1',    '1',          0,     '',       20,        0,        0,      0.2,      0.1, 
              -0.1,     0.33,        0,      1.6,        1,        0,   100000,        0,        0, 
               999,        0,        0,      999,        0,        0 /
      30,   'GENROU',    '1',     10.2,     0.03,      1.5,     0.04,      4.2,        2,     0.01, 
            0.0069,   0.0031,   0.0008,    0.002,  0.00125,        0,        0 /
      31,     'SEXS',    '1',     0.25,        4,      200,     0.02,     -4.6,        6 /
      31,    'LCFB1',    '1',        1,        0,       10,        5,    0.001,      0.2,        5, 
                 2,      2.4 /
      31,   'IEEEG1',    '1',          0,     '',       20,        0,        0,     0.45,      0.1, 
              -0.1,     0.66,        0,     54.1,        1,        0,   100000,        0,        0, 
               999,        0,        0,      999,        0,        0 /
      31,   'GENROU',    '1',     6.56,     0.03,      1.5,     0.04,     3.03,        2,   0.0295, 
            0.0282,  0.00697,    0.017,    0.002,   0.0035,        0,        0 /
      32,     'SEXS',    '1',     0.25,        4,      200,     0.02,     -4.6,        6 /
      32,   'IEEEG1',    '1',          0,     '',       20,        0,        0,        3,      0.1, 
              -0.1,     0.77,        0,       10,        1,        0,   100000,        0,        0, 
               999,        0,        0,      999,        0,        0 /
      32,   'GENROU',    '1',      5.7,     0.03,      1.5,     0.04,     3.58,        2,  0.02495, 
            0.0237,  0.00531,  0.00876,    0.002,  0.00304,        0,        0 /
      33,   'IEEET1',    '1',     0.01,       20,     0.02,       10,      -10,        1,      1.5, 
              0.04,      0.7,        0,     1.65,     0.12,      2.2,     0.54 /
      33,   'IEEEG1',    '1',          0,     '',       20,        0,        0,     0.24,      0.1, 
              -0.1,     0.77,        0,    10.18,        1,        0,   100000,        0,        0, 
               999,        0,        0,      999,        0,        0 /
      33,   'GENROU',    '1',     5.69,     0.03,      1.5,     0.04,     2.86,        2,   0.0262, 
            0.0258,  0.00436,   0.0166,    0.002,  0.00295,        0,        0 /
      34,   'IEEET1',    '1',     0.01,       20,     0.02,       10,      -10,        1,      1.5, 
              0.04,      0.7,        0,     1.65,     0.12,      2.2,     0.54 /
      34,   'IEEEG1',    '1',          0,     '',       20,        0,        0,     0.12,      0.1, 
              -0.1,     0.66,        0,     9.79,        1,        0,   100000,        0,        0, 
               999,        0,        0,      999,        0,        0 /
      34,   'GENROU',    '1',      5.4,     0.03,     0.44,     0.04,      2.6,        2,    0.067, 
             0.062,   0.0132,   0.0166,    0.002,   0.0054,        0,        0 /
      35,   'IEEET1',    '1',     0.01,       20,     0.02,       10,      -10,        1,      1.5, 
              0.04,      0.7,        0,     1.65,     0.12,      2.2,     0.54 /
      35,   'IEEEG1',    '1',          0,     '',       20,        0,        0,        3,      0.1, 
              -0.1,     0.77,        0,       10,        1,        0,   100000,        0,        0, 
               999,        0,        0,      999,        0,        0 /
      35,   'GENROU',    '1',      7.3,     0.03,      0.4,     0.04,     3.48,        2,   0.0254, 
            0.0241,    0.005,  0.00814,    0.002,  0.00224,        0,        0 /
      38,     'SEXS',    '1',     0.25,        4,      200,     0.02,     -4.6,        6 /
      38,   'IEEEG1',    '1',          0,     '',       20,        0,        0,     0.38,      0.1, 
              -0.1,     0.99,        0,      6.1,        1,        0,   100000,        0,        0, 
               999,        0,        0,      999,        0,        0 /
      38,   'GENROU',    '1',     4.79,     0.03,     1.96,     0.04,     3.45,        2,  0.02106, 
            0.0205,   0.0057,  0.00587,    0.002,  0.00298,        0,        0 /
      39,     'SEXS',    '1',     0.25,        4,      200,     0.02,     -4.6,        6 /
      39,   'IEEEG1',    '1',          0,     '',       20,        0,        0,        2,      0.1, 
              -0.1,      1.1,        0,       10,        1,        0,   100000,        0,        0, 
               999,        0,        0,      999,        0,        0 /
      39,   'GENROU',    '1',        7,     0.03,      0.7,     0.04,        5,        2,    0.002, 
            0.0019,   0.0006,   0.0008,   0.0002,   0.0003,        0,        0 /
      36,    'WT3G2',    '1',      600,     0.02,     0.02,        0,        0,      0.1,      1.5, 
               0.5,      0.9,     1.22,      0.8,       20,      0.2,     0.02 /
      36,    'AERD0',    '1',        0,        3,       13,        1,     1.25,      0.7,      1.2, 
              1.25,   0.5176,      116,      0.4,        5,       21,   0.0068,     0.08,    0.035 /
      36,    'WT3T0',    '1',      2.5,      0.5,      0.3,        1,        0 /
      36,    'WT3E0',    '1',        0,        0,        1,        0,     0.02,        1,       18, 
              0.05,        5,     -0.5,      0.5,     0.15,     0.05,      0.1,      0.9,      1.1, 
                10,     -1.5,     1.45,       60,        3,      0.6,        0,        1,       15, 
               0.1,        0,        0,        0,    -0.45,     0.45,     0.05,     0.04,     1.12, 
               1.1 / 
      36,    'WT3P0',    '1',        0,       60,      150,       25,      0.2,        0,        0, 
                 0,        0,        0,      0.1,       90,        0,       90,        1 /
      36,   'WTRLY0',    '1', 
                 5,        0,        0,        0,        0,        0,        0,        0,        0,        0,        0, 
                 5,      0.4,      0.1,      1.3,      0.1,        0,        0,        0,        0,        0,        0, 
                 5,     0.75,      0.1,     1.05,      0.1,        0,        0,        0,        0,        0,        0, 
                 5,      0.7,      0.1,      1.3,      0.1,        0,        0,        0,        0,        0,        0 /
      37,    'WT3G0',    '1',      560,      1.5,     0.02,      0.2,     0.02,      0.5,      0.9, 
              1.22,     0.02,      0.8,       20,        0,        0,      0.1,     -0.1 /
      37,    'AERD0',    '1',        0,        3,       13,        1,     1.25,      0.7,      1.2, 
              1.25,   0.5176,      116,      0.4,        5,       21,   0.0068,     0.08,    0.035 /
      37,    'WT3T0',    '1',      2.5,      0.5,      0.3,        1,        0 /
      37,    'WT3E0',    '1',        0,        0,        1,        0,     0.02,        1,       18, 
              0.05,        5,     -0.5,      0.5,     0.15,     0.05,      0.1,      0.9,      1.1, 
                10,     -1.5,     1.45,       60,        3,      0.6,        0,        1,       15, 
               0.1,        0,        0,        0,    -0.45,     0.45,     0.05,     0.04,     1.12, 
               1.1 / 
      37,    'WT3P0',    '1',        0,       60,      150,       25,      0.2,        0,        0, 
                 0,        0,        0,      0.1,       90,        0,       90,        1 /
      37, 'FILEWIND',    '1', 'wind.csv' /
      37,   'WTRLY0',    '1', 
                 5,        0,        0,        0,        0,        0,        0,        0,        0,        0,        0, 
                 5,      0.4,      0.1,      1.3,      0.1,        0,        0,        0,        0,        0,        0, 
                 5,     0.97,      0.1,     1.05,      0.1,        0,        0,        0,        0,        0,        0, 
                 5,      0.7,      0.1,      1.3,      0.1,        0,        0,        0,        0,        0,        0 /
       3,  'PUFLSBL',    '1',        1,     0.01,       60,   0.6142,        0,      0.5,        0, 
                 3,      0.1,     0.05,     0.06,     0.05,     0.07,     0.08,      0.1,     0.05, 
              0.04,        0,        0,        0,        0,        0,        0,        0,        0, 
                 0,        0,        0,        0,        0,        0,        0,        0,        0, 
                 0,        0,        0,        0,        0,        0,        0,        0,        0, 
                 0,        0,        0,        0,        0,        0,        0,        0,        0, 
                 0,        0,        0,        0,        0,        0,        0,        0 /
       3,   'CIM6BL',    '1',        1,     0.01,     0.09,      4.2,    0.035,     0.09,        0, 
                 0,        1,        0,      1.2,        0,        0,      1.5,      1.5,        0, 
                 0,        0,        0,        0,        0,        0,        1,        0 /
       4,   'UFLSBL',    '1',   0.0000,   0.0000,  59.5000,   0.3000,   0.0700,  59.3000,   0.3000, 
            0.0700,  59.1000,   0.3000,   0.0700,  58.9000,   0.3000,   0.0700,  59.5000,  10.0000, 
            0.0250 /
       4,   'CIM6BL',    '1',        1,     0.01,     0.09,      4.2,    0.035,     0.09,    0.012, 
              0.04,        1,        0,      1.2,        0,        0,      1.5,      1.5,        0, 
                 0,        0,        0,        0,        0,        0,        1,        0 /
       7,   'UFLSBL',    '1',   0.0000,   0.0000,  59.5000,   0.3000,   0.0700,  59.3000,   0.3000, 
            0.0700,  59.1000,   0.3000,   0.0700,  58.9000,   0.3000,   0.0700,  59.5000,  10.0000, 
            0.0250 /
       7,   'CIM6BL',    '1',        2,     0.01,     0.09,      4.2,    0.035,     0.09,    0.012, 
              0.04,        1,        0,      1.2,        0,        0,      1.5,      1.5,        0, 
                 0,        0,        0,        0,        0,        0,        1,        0 /
       8,   'UFLSBL',    '1',   0.0000,   0.0000,  59.5000,   0.3000,   0.0700,  59.3000,   0.3000, 
            0.0700,  59.1000,   0.3000,   0.0700,  58.9000,   0.3000,   0.0700,  59.5000,  10.0000, 
            0.0250 /
       8,   'IEELBL',    '1',        1,        0,        0,        1,        0,        0,        0, 
                 0,        2,        1,        0,        2,        1,        0 /
      12,   'UFLSBL',    '1',   0.0000,   0.0000,  59.5000,   0.3000,   0.0700,  59.3000,   0.3000, 
            0.0700,  59.1000,   0.3000,   0.0700,  58.9000,   0.3000,   0.0700,  59.5000,  10.0000, 
            0.0250 /
      12,   'IEELBL',    '1',        1,        0,        0,        1,        0,        0,        0, 
                 0,        2,        1,        0,        2,        1,        0 /
      15,   'UFLSBL',    '1',   0.0000,   0.0000,  59.5000,   0.3000,   0.0700,  59.3000,   0.3000, 
            0.0700,  59.1000,   0.3000,   0.0700,  58.9000,   0.3000,   0.0700,  59.5000,  10.0000, 
            0.0250 /
      15,   'IEELBL',    '1',        1,        0,        0,        1,        0,        0,        0, 
                 0,        2,        1,        0,        2,        1,        0 /
      16,   'UFLSBL',    '1',   0.0000,   0.0000,  59.5000,   0.3000,   0.0700,  59.3000,   0.3000, 
            0.0700,  59.1000,   0.3000,   0.0700,  58.9000,   0.3000,   0.0700,  59.5000,  10.0000, 
            0.0250 /
      16,   'IEELBL',    '1',        1,        0,        0,        1,        0,        0,        0, 
                 0,        2,        1,        0,        2,        1,        0 /
      18,   'UFLSBL',    '1',   0.0000,   0.0000,  59.5000,   0.3000,   0.0700,  59.3000,   0.3000, 
            0.0700,  59.1000,   0.3000,   0.0700,  58.9000,   0.3000,   0.0700,  59.5000,  10.0000, 
            0.0250 /
      18,   'IEELBL',    '1',        1,        0,        0,        1,        0,        0,        0, 
                 0,        2,        1,        0,        2,        1,        0 /
      20,   'UFLSBL',    '1',   0.0000,   0.0000,  59.5000,   0.3000,   0.0700,  59.3000,   0.3000, 
            0.0700,  59.1000,   0.3000,   0.0700,  58.9000,   0.3000,   0.0700,  59.5000,  10.0000, 
            0.0250 /
      20,   'IEELBL',    '1',        1,        0,        0,        1,        0,        0,        0, 
                 0,        2,        1,        0,        2,        1,        0 /
      21,   'UFLSBL',    '1',   0.0000,   0.0000,  59.5000,   0.3000,   0.0700,  59.3000,   0.3000, 
            0.0700,  59.1000,   0.3000,   0.0700,  58.9000,   0.3000,   0.0700,  59.5000,  10.0000, 
            0.0250 /
      21,   'IEELBL',    '1',        1,        0,        0,        1,        0,        0,        0, 
                 0,        2,        1,        0,        2,        1,        0 /
      23,   'UFLSBL',    '1',   0.0000,   0.0000,  59.5000,   0.3000,   0.0700,  59.3000,   0.3000, 
            0.0700,  59.1000,   0.3000,   0.0700,  58.9000,   0.3000,   0.0700,  59.5000,  10.0000, 
            0.0250 /
      23,   'IEELBL',    '1',        1,        0,        0,        1,        0,        0,        0, 
                 0,        2,        1,        0,        2,        1,        0 /
      24,   'UFLSBL',    '1',   0.0000,   0.0000,  59.5000,   0.3000,   0.0700,  59.3000,   0.3000, 
            0.0700,  59.1000,   0.3000,   0.0700,  58.9000,   0.3000,   0.0700,  59.5000,  10.0000, 
            0.0250 /
      24,   'IEELBL',    '1',        1,        0,        0,        1,        0,        0,        0, 
                 0,        2,        1,        0,        2,        1,        0 /
      25,   'UFLSBL',    '1',   0.0000,   0.0000,  59.5000,   0.3000,   0.0700,  59.3000,   0.3000, 
            0.0700,  59.1000,   0.3000,   0.0700,  58.9000,   0.3000,   0.0700,  59.5000,  10.0000, 
            0.0250 /
      25,   'IEELBL',    '1',        1,        0,        0,        1,        0,        0,        0, 
                 0,        2,        1,        0,        2,        1,        0 /
      26,   'UFLSBL',    '1',   0.0000,   0.0000,  59.5000,   0.3000,   0.0700,  59.3000,   0.3000, 
            0.0700,  59.1000,   0.3000,   0.0700,  58.9000,   0.3000,   0.0700,  59.5000,  10.0000, 
            0.0250 /
      26,   'IEELBL',    '1',        1,        0,        0,        1,        0,        0,        0, 
                 0,        2,        1,        0,        2,        1,        0 /
      27,   'UFLSBL',    '1',   0.0000,   0.0000,  59.5000,   0.3000,   0.0700,  59.3000,   0.3000, 
            0.0700,  59.1000,   0.3000,   0.0700,  58.9000,   0.3000,   0.0700,  59.5000,  10.0000, 
            0.0250 /
      27,   'IEELBL',    '1',        1,        0,        0,        1,        0,        0,        0, 
                 0,        2,        1,        0,        2,        1,        0 /
      28,   'UFLSBL',    '1',   0.0000,   0.0000,  59.5000,   0.3000,   0.0700,  59.3000,   0.3000, 
            0.0700,  59.1000,   0.3000,   0.0700,  58.9000,   0.3000,   0.0700,  59.5000,  10.0000, 
            0.0250 /
      28,   'IEELBL',    '1',        1,        0,        0,        1,        0,        0,        0, 
                 0,        2,        1,        0,        2,        1,        0 /
      29,   'UFLSBL',    '1',   0.0000,   0.0000,  59.5000,   0.3000,   0.0700,  59.3000,   0.3000, 
            0.0700,  59.1000,   0.3000,   0.0700,  58.9000,   0.3000,   0.0700,  59.5000,  10.0000, 
            0.0250 /
      29,   'IEELBL',    '1',        1,        0,        0,        1,        0,        0,        0, 
                 0,        2,        1,        0,        2,        1,        0 /
      31,   'UFLSBL',    '1',   0.0000,   0.0000,  59.5000,   0.3000,   0.0700,  59.3000,   0.3000, 
            0.0700,  59.1000,   0.3000,   0.0700,  58.9000,   0.3000,   0.0700,  59.5000,  10.0000, 
            0.0250 /
      31,   'IEELBL',    '1',        1,        0,        0,        1,        0,        0,        0, 
                 0,        2,        1,        0,        2,        1,        0 /
      39,   'UFLSBL',    '1',   0.0000,   0.0000,  59.5000,   0.3000,   0.0700,  59.3000,   0.3000, 
            0.0700,  59.1000,   0.3000,   0.0700,  58.9000,   0.3000,   0.0700,  59.5000,  10.0000, 
            0.0250 /
      39,   'IEELBL',    '1',        1,        0,        0,        1,        0,        0,        0, 
                 0,        2,        1,        0,        2,        1,        0 /
