      30,     'SEXS',    '1',     0.25,        4,      200,     0.02,     -4.6,        6 /
      30,   'IEEEG1',    '1',          0,     '',       20,        0,        0,      0.2,      0.1, 
              -0.1,     0.33,        0,      1.6,        1,        0,   100000,        0,        0, 
               999,        0,        0,      999,        0,        0 /
      30,   'GENROU',    '1',     10.2,     0.03,      1.5,     0.04,      4.2,        2,     0.01, 
            0.0069,   0.0031,   0.0008,    0.002,  0.00125,        0,        0 /
      31,     'SEXS',    '1',     0.25,        4,      200,     0.02,     -4.6,        6 /
      31,    'LCFB1',    '1',        1,        0,       10,        5,    0.001,      0.2,        5, 
                 2,      2.4 /
      31,   'IEEEG1',    '1',          0,     '',       20,        0,        0,     0.45,      0.1, 
              -0.1,     0.66,        0,     54.1,        1,        0,   100000,        0,        0, 
               999,        0,        0,      999,        0,        0 /
      31,   'GENROU',    '1',     6.56,     0.03,      1.5,     0.04,     3.03,        2,   0.0295, 
            0.0282,  0.00697,    0.017,    0.002,   0.0035,        0,        0 /
      32,     'SEXS',    '1',     0.25,        4,      200,     0.02,     -4.6,        6 /
      32,   'IEEEG1',    '1',          0,     '',       20,        0,        0,        3,      0.1, 
              -0.1,     0.77,        0,       10,        1,        0,   100000,        0,        0, 
               999,        0,        0,      999,        0,        0 /
      32,   'GENROU',    '1',      5.7,     0.03,      1.5,     0.04,     3.58,        2,  0.02495, 
            0.0237,  0.00531,  0.00876,    0.002,  0.00304,        0,        0 /
      33,   'IEEET1',    '1',     0.01,       20,     0.02,       10,      -10,        1,      1.5, 
              0.04,      0.7,        0,     1.65,     0.12,      2.2,     0.54 /
      33,   'IEEEG1',    '1',          0,     '',       20,        0,        0,     0.24,      0.1, 
              -0.1,     0.77,        0,    10.18,        1,        0,   100000,        0,        0, 
               999,        0,        0,      999,        0,        0 /
      33,   'GENROU',    '1',     5.69,     0.03,      1.5,     0.04,     2.86,        2,   0.0262, 
            0.0258,  0.00436,   0.0166,    0.002,  0.00295,        0,        0 /
      34,   'IEEET1',    '1',     0.01,       20,     0.02,       10,      -10,        1,      1.5, 
              0.04,      0.7,        0,     1.65,     0.12,      2.2,     0.54 /
      34,   'IEEEG1',    '1',          0,     '',       20,        0,        0,     0.12,      0.1, 
              -0.1,     0.66,        0,     9.79,        1,        0,   100000,        0,        0, 
               999,        0,        0,      999,        0,        0 /
      34,   'GENROU',    '1',      5.4,     0.03,     0.44,     0.04,      2.6,        2,    0.067, 
             0.062,   0.0132,   0.0166,    0.002,   0.0054,        0,        0 /
      35,   'IEEET1',    '1',     0.01,       20,     0.02,       10,      -10,        1,      1.5, 
              0.04,      0.7,        0,     1.65,     0.12,      2.2,     0.54 /
      35,   'IEEEG1',    '1',          0,     '',       20,        0,        0,        3,      0.1, 
              -0.1,     0.77,        0,       10,        1,        0,   100000,        0,        0, 
               999,        0,        0,      999,        0,        0 /
      35,   'GENROU',    '1',      7.3,     0.03,      0.4,     0.04,     3.48,        2,   0.0254, 
            0.0241,    0.005,  0.00814,    0.002,  0.00224,        0,        0 /
      38,     'SEXS',    '1',     0.25,        4,      200,     0.02,     -4.6,        6 /
      38,   'IEEEG1',    '1',          0,     '',       20,        0,        0,     0.38,      0.1, 
              -0.1,     0.99,        0,      6.1,        1,        0,   100000,        0,        0, 
               999,        0,        0,      999,        0,        0 /
      38,   'GENROU',    '1',     4.79,     0.03,     1.96,     0.04,     3.45,        2,  0.02106, 
            0.0205,   0.0057,  0.00587,    0.002,  0.00298,        0,        0 /
      39,     'SEXS',    '1',     0.25,        4,      200,     0.02,     -4.6,        6 /
      39,   'IEEEG1',    '1',          0,     '',       20,        0,        0,        2,      0.1, 
              -0.1,      1.1,        0,       10,        1,        0,   100000,        0,        0, 
               999,        0,        0,      999,        0,        0 /
      39,   'GENROU',    '1',        7,     0.03,      0.7,     0.04,        5,        2,    0.002, 
            0.0019,   0.0006,   0.0008,   0.0002,   0.0003,        0,        0 /
     104,     'SEXS',    '1',      0.1,       10,      100,      0.1,        0,        6 /
     104,   'IEESGO',    '1',        0,        0,     0.04,      0.3,        7,        0,       20, 
               0.7,        0,     1.15,        0 /
     104,   'GENROU',    '1',      7.5,     0.05,    0.938,     0.05,     4.43,        0,   1.8929, 
               1.8,   0.2751,   0.3751,     0.15,      0.1,     0.03,      0.4 /
     109,     'SEXS',    '1',      0.1,       10,      100,      0.1,        0,        6 /
     109,   'IEESGO',    '1',        0,        0,     0.04,      0.3,        7,        0,       20, 
               0.7,        0,     1.16,        0 /
     109,   'GENROU',    '1',     8.45,    0.047,    0.938,    0.047,    2.778,        0,   2.0811, 
                 2,   0.3005,   0.4173,     0.15,      0.1,     0.03,      0.4 /
     113,     'SEXS',    '1',      0.1,       10,      100,      0.1,        0,        6 /
     113,   'IEESGO',    '1',        0,        0,     0.04,      0.3,        7,        0,       20, 
               0.7,        0,     1.03,        0 /
     113,   'GENROU',    '1',      7.5,     0.05,    0.938,     0.05,     4.43,        0,   1.8929, 
               1.8,   0.2751,   0.3751,     0.15,      0.1,     0.03,      0.4 /
     116,     'SEXS',    '1',      0.1,       10,      100,      0.1,        0,        6 /
     116,   'IEESGO',    '1',        0,        0,     0.04,      0.3,        7,        0,       20, 
               0.7,        0,     1.16,        0 /
     116,   'GENROU',    '1',      7.5,     0.05,    0.938,     0.05,     4.43,        0,   1.8929, 
               1.8,   0.2751,   0.3751,     0.15,      0.1,     0.03,      0.4 /
     119,     'SEXS',    '1',      0.1,       10,      100,      0.1,        0,        6 /
     119,   'IEESGO',    '1',        0,        0,     0.04,      0.3,        7,        0,       20, 
               0.7,        0,     0.87,        0 /
     119,   'GENROU',    '1',     8.45,    0.047,    0.938,    0.047,    2.778,        0,   2.0811, 
                 2,   0.3005,   0.4173,     0.15,      0.1,     0.03,      0.4 /
     130,     'SEXS',    '1',      0.1,       10,      100,      0.1,        0,        6 /
     130,   'IEESGO',    '1',        0,        0,     0.04,      0.3,        7,        0,       20, 
               0.7,        0,     1.09,        0 /
     130,   'GENROU',    '1',      7.5,     0.05,    0.938,     0.05,     4.43,        0,   1.8929, 
               1.8,   0.2751,   0.3751,     0.15,      0.1,     0.03,      0.4 /
     132,     'SEXS',    '1',      0.1,       10,      100,      0.1,        0,        6 /
     132,   'IEESGO',    '1',        0,        0,     0.04,      0.3,        7,        0,       20, 
               0.7,        0,     1.15,        0 /
     132,   'GENROU',    '1',      7.5,     0.05,    0.938,     0.05,     4.43,        0,   1.8929, 
               1.8,   0.2751,   0.3751,     0.15,      0.1,     0.03,      0.4 /
     135,     'SEXS',    '1',      0.1,       10,      100,      0.1,        0,        6 /
     135,   'IEESGO',    '1',        0,        0,     0.04,      0.3,        7,        0,       20, 
               0.7,        0,    0.708,        0 /
     135,   'GENROU',    '1',      7.5,     0.05,    0.938,     0.05,     4.43,        0,   1.8929, 
               1.8,   0.2751,   0.3751,     0.15,      0.1,     0.03,      0.4 /
     139,     'SEXS',    '1',      0.1,       10,      100,      0.1,        0,        6 /
     139,   'IEESGO',    '1',        0,        0,     0.04,      0.3,        7,        0,       20, 
               0.7,        0,     1.25,        0 /
     139,   'GENROU',    '1',      7.5,     0.05,    0.938,     0.05,     4.43,        0,   1.8929, 
               1.8,   0.2751,   0.3751,     0.15,      0.1,     0.03,      0.4 /
     141,     'SEXS',    '1',      0.1,       10,      100,      0.1,        0,        6 /
     141,   'IEESGO',    '1',        0,        0,     0.04,      0.3,        7,        0,       20, 
               0.7,        0,     0.86,        0 /
     141,   'GENROU',    '1',     8.45,    0.047,    0.938,    0.047,    2.778,        0,   2.0811, 
                 2,   0.3005,   0.4173,     0.15,      0.1,     0.03,      0.4 /
     146,     'SEXS',    '1',      0.1,       10,      100,      0.1,        0,        6 /
     146,   'IEESGO',    '1',        0,        0,     0.04,      0.3,        7,        0,       20, 
               0.7,        0,     0.91,        0 /
     146,   'GENROU',    '1',      7.5,     0.05,    0.938,     0.05,     4.43,        0,   1.8929, 
               1.8,   0.2751,   0.3751,     0.15,      0.1,     0.03,      0.4 /
     149,     'SEXS',    '1',      0.1,       10,      100,      0.1,        0,        6 /
     149,   'IEESGO',    '1',        0,        0,     0.04,      0.3,        7,        0,       20, 
               0.7,        0,     1.11,        0 /
     149,   'GENROU',    '1',      7.5,     0.05,    0.938,     0.05,     4.43,        0,   1.8929, 
               1.8,   0.2751,   0.3751,     0.15,      0.1,     0.03,      0.4 /
     151,     'SEXS',    '1',      0.1,       10,      100,      0.1,        0,        6 /
     151,   'IEESGO',    '1',        0,        0,     0.04,      0.3,        7,        0,       20, 
               0.7,        0,     0.87,        0 /
     151,   'GENROU',    '1',      7.5,     0.05,    0.938,     0.05,     4.43,        0,   1.8929, 
               1.8,   0.2751,   0.3751,     0.15,      0.1,     0.03,      0.4 /
     154,     'SEXS',    '1',      0.1,       10,      100,      0.1,        0,        6 /
     154,   'IEESGO',    '1',        0,        0,     0.04,      0.3,        7,        0,       20, 
               0.7,        0,     1.14,        0 /
     154,   'GENROU',    '1',      7.5,     0.05,    0.938,     0.05,     4.43,        0,   1.8929, 
               1.8,   0.2751,   0.3751,     0.15,      0.1,     0.03,      0.4 /
     156,     'SEXS',    '1',      0.1,       10,      100,      0.1,        0,        6 /
     156,   'IEESGO',    '1',        0,        0,     0.04,      0.3,        7,        0,       20, 
               0.7,        0,     0.99,        0 /
     156,   'GENROU',    '1',     8.45,    0.047,    0.938,    0.047,    2.778,        0,   2.0811, 
                 2,   0.3005,   0.4173,     0.15,      0.1,     0.03,      0.4 /
     158,     'SEXS',    '1',      0.1,       10,      100,      0.1,        0,        6 /
     158,   'IEESGO',    '1',        0,        0,     0.04,      0.3,        7,        0,       20, 
               0.7,        0,     1.03,        0 /
     158,   'GENROU',    '1',      7.5,     0.05,    0.938,     0.05,     4.43,        0,   1.8929, 
               1.8,   0.2751,   0.3751,     0.15,      0.1,     0.03,      0.4 /
     160,     'SEXS',    '1',      0.1,       10,      100,      0.1,        0,        6 /
     160,   'IEESGO',    '1',        0,        0,     0.04,      0.3,        7,        0,       20, 
               0.7,        0,     1.08,        0 /
     160,   'GENROU',    '1',      7.5,     0.05,    0.938,     0.05,     4.43,        0,   1.8929, 
               1.8,   0.2751,   0.3751,     0.15,      0.1,     0.03,      0.4 /
     162,     'SEXS',    '1',      0.1,       10,      100,      0.1,        0,        6 /
     162,   'IEESGO',    '1',        0,        0,     0.04,      0.3,        7,        0,       20, 
               0.7,        0,     1.12,        0 /
     162,   'GENROU',    '1',     8.45,    0.047,    0.938,    0.047,    2.778,        0,   2.0811, 
                 2,   0.3005,   0.4173,     0.15,      0.1,     0.03,      0.4 /
     164,     'SEXS',    '1',      0.1,       10,      100,      0.1,        0,        6 /
     164,   'IEESGO',    '1',        0,        0,     0.04,      0.3,        7,        0,       20, 
               0.7,        0,     1.14,        0 /
     164,   'GENROU',    '1',      7.5,     0.05,    0.938,     0.05,     4.43,        0,   1.8929, 
               1.8,   0.2751,   0.3751,     0.15,      0.1,     0.03,      0.4 /
     168,     'SEXS',    '1',      0.1,       10,      100,      0.1,        0,        6 /
     168,   'IEESGO',    '1',        0,        0,     0.04,      0.3,        7,        0,       20, 
               0.7,        0,        1,        0 /
     168,   'GENROU',    '1',      7.5,     0.05,    0.938,     0.05,     4.43,        0,   1.8929, 
               1.8,   0.2751,   0.3751,     0.15,      0.1,     0.03,      0.4 /
     172,     'SEXS',    '1',      0.1,       10,      100,      0.1,        0,        6 /
     172,   'IEESGO',    '1',        0,        0,     0.04,      0.3,        7,        0,       20, 
               0.7,        0,     0.77,        0 /
     172,   'GENROU',    '1',      7.5,     0.05,    0.938,     0.05,     4.43,        0,   1.8929, 
               1.8,   0.2751,   0.3751,     0.15,      0.1,     0.03,      0.4 /
     174,     'SEXS',    '1',      0.1,       10,      100,      0.1,        0,        6 /
     174,   'IEESGO',    '1',        0,        0,     0.04,      0.3,        7,        0,       20, 
               0.7,        0,     1.03,        0 /
     174,   'GENROU',    '1',     8.45,    0.047,    0.938,    0.047,    2.778,        0,   2.0811, 
                 2,   0.3005,   0.4173,     0.15,      0.1,     0.03,      0.4 /
     179,     'SEXS',    '1',      0.1,       10,      100,      0.1,        0,        6 /
     179,   'IEESGO',    '1',        0,        0,     0.04,      0.3,        7,        0,       20, 
               0.7,        0,     1.14,        0 /
     179,   'GENROU',    '1',      7.5,     0.05,    0.938,     0.05,     4.43,        0,   1.8929, 
               1.8,   0.2751,   0.3751,     0.15,      0.1,     0.03,      0.4 /
     182,     'SEXS',    '1',      0.1,       10,      100,      0.1,        0,        6 /
     182,   'IEESGO',    '1',        0,        0,     0.04,      0.3,        7,        0,       20, 
               0.7,        0,    1.125,        0 /
     182,   'GENROU',    '1',      7.5,     0.05,    0.938,     0.05,     4.43,        0,   1.8929, 
               1.8,   0.2751,   0.3751,     0.15,      0.1,     0.03,      0.4 /
     185,     'SEXS',    '1',      0.1,       10,      100,      0.1,        0,        6 /
     185,   'IEESGO',    '1',        0,        0,     0.04,      0.3,        7,        0,       20, 
               0.7,        0,     1.15,        0 /
     185,   'GENROU',    '1',      7.5,     0.05,    0.938,     0.05,     4.43,        0,   1.8929, 
               1.8,   0.2751,   0.3751,     0.15,      0.1,     0.03,      0.4 /
     188,     'SEXS',    '1',      0.1,       10,      100,      0.1,        0,        6 /
     188,   'IEESGO',    '1',        0,        0,     0.04,      0.3,        7,        0,       20, 
               0.7,        0,     1.11,        0 /
     188,   'GENROU',    '1',     8.45,    0.047,    0.938,    0.047,    2.778,        0,   2.0811, 
                 2,   0.3005,   0.4173,     0.15,      0.1,     0.03,      0.4 /
     190,     'SEXS',    '1',      0.1,       10,      100,      0.1,        0,        6 /
     190,   'IEESGO',    '1',        0,        0,     0.04,      0.3,        7,        0,       20, 
               0.7,        0,     1.15,        0 /
     190,   'GENROU',    '1',      7.5,     0.05,    0.938,     0.05,     4.43,        0,   1.8929, 
               1.8,   0.2751,   0.3751,     0.15,      0.1,     0.03,      0.4 /
     192,     'SEXS',    '1',      0.1,       10,      100,      0.1,        0,        6 /
     192,   'IEESGO',    '1',        0,        0,     0.04,      0.3,        7,        0,       20, 
               0.7,        0,     1.04,        0 /
     192,   'GENROU',    '1',     8.45,    0.047,    0.938,    0.047,    2.778,        0,   2.0811, 
                 2,   0.3005,   0.4173,     0.15,      0.1,     0.03,      0.4 /
     194,     'SEXS',    '1',      0.1,       10,      100,      0.1,        0,        6 /
     194,   'IEESGO',    '1',        0,        0,     0.04,      0.3,        7,        0,       20, 
               0.7,        0,     0.82,        0 /
     194,   'GENROU',    '1',      7.5,     0.05,    0.938,     0.05,     4.43,        0,   1.8929, 
               1.8,   0.2751,   0.3751,     0.15,      0.1,     0.03,      0.4 /
     207,     'SEXS',    '1',      0.1,       10,      100,      0.1,        0,        6 /
     207,   'IEESGO',    '1',        0,        0,     0.04,      0.3,        7,        0,       20, 
               0.7,        0,     1.15,        0 /
     207,   'GENROU',    '1',     8.45,    0.047,    0.938,    0.047,    2.778,        0,   2.0811, 
                 2,   0.3005,   0.4173,     0.15,      0.1,     0.03,      0.4 /
     210,     'SEXS',    '1',      0.1,       10,      100,      0.1,        0,        6 /
     210,   'IEESGO',    '1',        0,        0,     0.04,      0.3,        7,        0,       20, 
               0.7,        0,     1.15,        0 /
     210,   'GENROU',    '1',      7.5,     0.05,    0.938,     0.05,     4.43,        0,   1.8929, 
               1.8,   0.2751,   0.3751,     0.15,      0.1,     0.03,      0.4 /
     217,     'SEXS',    '1',      0.1,       10,      100,      0.1,        0,        6 /
     217,   'IEESGO',    '1',        0,        0,     0.04,      0.3,        7,        0,       20, 
               0.7,        0,     0.91,       -1 /
     217,   'GENROU',    '1',    8.375,   0.1998,      0.2,   0.1998,    2.636,        0,   1.8548, 
             1.854,   0.2568,   0.3568,     0.15,      0.1,     0.03,      0.4 /
     302,     'SEXS',    '1',      0.1,       10,      100,      0.1,        0,        6 /
     302,   'IEESGO',    '1',        0,        0,     0.04,      0.3,        7,        0,       20, 
               0.7,        0,     1.14,        0 /
     302,   'GENROU',    '1',      7.5,     0.05,    0.938,     0.05,     4.43,        0,   1.8929, 
               1.8,   0.2751,   0.3751,     0.15,      0.1,     0.03,      0.4 /
     303,     'SEXS',    '1',      0.1,       10,      100,      0.1,        0,        6 /
     303,   'IEESGO',    '1',        0,        0,     0.04,      0.3,        7,        0,       20, 
               0.7,        0,     1.04,        0 /
     303,   'GENROU',    '1',     8.45,    0.047,    0.938,    0.047,    2.778,        0,   2.0811, 
                 2,   0.3005,   0.4173,     0.15,      0.1,     0.03,      0.4 /
     305,     'SEXS',    '1',      0.1,       10,      100,      0.1,        0,        6 /
     305,   'IEESGO',    '1',        0,        0,     0.04,      0.3,        7,        0,       20, 
               0.7,        0,    1.125,        0 /
     305,   'GENROU',    '1',      7.5,     0.05,    0.938,     0.05,     4.43,        0,   1.8929, 
               1.8,   0.2751,   0.3751,     0.15,      0.1,     0.03,      0.4 /
     501,     'SEXS',    '1',      0.1,       10,      100,      0.1,        0,        6 /
     501,   'IEESGO',    '1',        0,        0,     0.04,      0.3,        7,        0,       20, 
               0.7,        0,     1.04,        0 /
     501,   'GENROU',    '1',     8.45,    0.047,    0.938,    0.047,    2.778,        0,   2.0811, 
                 2,   0.3005,   0.4173,     0.15,      0.1,     0.03,      0.4 /
     601,   'GENCLS',    '1',        6,        0 /
     701,   'GENCLS',    '1',        6,        0 /
     702,   'GENCLS',    '1',        6,        0 /
      36,    'WT3G2',    '1',      600,     0.02,     0.02,        0,        0,      0.1,      1.5, 
               0.5,      0.9,     1.22,      0.8,       20,      0.2,     0.02 /
      36,    'AERD0',    '1',        0,        3,       13,        1,     1.25,      0.7,      1.2, 
              1.25,   0.5176,      116,      0.4,        5,       21,   0.0068,     0.08,    0.035 /
      36,    'WT3T0',    '1',      2.5,      0.5,      0.3,        1,        0 /
      36,    'WT3E0',    '1',        0,        0,        1,        0,     0.02,        1,       18, 
              0.05,        5,     -0.5,      0.5,     0.15,     0.05,      0.1,      0.9,      1.1, 
                10,     -1.5,     1.45,       60,        3,      0.6,        0,        1,       15, 
               0.1,        0,        0,        0,    -0.45,     0.45,     0.05,     0.04,     1.12, 
               1.1 / 
      36,    'WT3P0',    '1',        0,       60,      150,       25,      0.2,        0,        0, 
                 0,        0,        0,      0.1,       90,        0,       90,        1 /
      36,   'WTRLY0',    '1', 
                 5,        0,        0,        0,        0,        0,        0,        0,        0,        0,        0, 
                 5,      0.4,      0.1,      1.3,      0.1,        0,        0,        0,        0,        0,        0, 
                 5,     0.75,      0.1,     1.05,      0.1,        0,        0,        0,        0,        0,        0, 
                 5,      0.7,      0.1,      1.3,      0.1,        0,        0,        0,        0,        0,        0 /
      37,    'WT3G0',    '1',      560,      1.5,     0.02,      0.2,     0.02,      0.5,      0.9, 
              1.22,     0.02,      0.8,       20,        0,        0,      0.1,     -0.1 /
      37,    'AERD0',    '1',        0,        3,       13,        1,     1.25,      0.7,      1.2, 
              1.25,   0.5176,      116,      0.4,        5,       21,   0.0068,     0.08,    0.035 /
      37,    'WT3T0',    '1',      2.5,      0.5,      0.3,        1,        0 /
      37,    'WT3E0',    '1',        0,        0,        1,        0,     0.02,        1,       18, 
              0.05,        5,     -0.5,      0.5,     0.15,     0.05,      0.1,      0.9,      1.1, 
                10,     -1.5,     1.45,       60,        3,      0.6,        0,        1,       15, 
               0.1,        0,        0,        0,    -0.45,     0.45,     0.05,     0.04,     1.12, 
               1.1 / 
      37,    'WT3P0',    '1',        0,       60,      150,       25,      0.2,        0,        0, 
                 0,        0,        0,      0.1,       90,        0,       90,        1 /
      37, 'FILEWIND',    '1', 'wind.csv' /
      37,   'WTRLY0',    '1', 
                 5,        0,        0,        0,        0,        0,        0,        0,        0,        0,        0, 
                 5,      0.4,      0.1,      1.3,      0.1,        0,        0,        0,        0,        0,        0, 
                 5,     0.97,      0.1,     1.05,      0.1,        0,        0,        0,        0,        0,        0, 
                 5,      0.7,      0.1,      1.3,      0.1,        0,        0,        0,        0,        0,        0 /
  'MD2SD-DC-HIG',    'CDC4T',        5,        5,      0.1,      0.1,      0.6,     0.65,       60, 
               640,     0.95,      0.2,      150,     1000,      0.3,      0.3,      100,      200, 
              2000,      500,     4000,      700,     7000,      0.1 /
  'MD2SD-DC-LOW',    'CDC4T',        5,        5,      0.1,      0.1,      0.6,     0.65,       60, 
               640,     0.95,      0.2,      150,     1000,      0.3,      0.3,      100,      200, 
              2000,      500,     4000,      700,     7000,      0.1 /
  'NX2SD-DC-NEG',    'CDC4T',        5,        5,      0.1,      0.1,      0.6,     0.65,       60, 
               528,     0.95,      0.2,      100,     1000,      0.3,      0.3,      100,      200, 
              1500,      400,     3000,      600,     4000,      0.1 /
  'NX2SD-DC-POS',    'CDC4T',        5,        5,      0.1,      0.1,      0.6,     0.65,       60, 
               528,     0.95,      0.2,      100,     1000,      0.3,      0.3,      100,      200, 
              1500,      400,     3000,      600,     4000,      0.1 /
  'MX2SD-DC-HIG',    'CDC4T',        5,        5,      0.1,      0.1,      0.6,     0.65,       60, 
               640,     0.95,      0.2,      150,     1000,      0.3,      0.3,      100,      200, 
              2000,      500,     4000,      700,     7000,      0.1 /
  'MX2SD-DC-LOW',    'CDC4T',        5,        5,      0.1,      0.1,      0.6,     0.65,       60, 
               640,     0.95,      0.2,      150,     1000,      0.3,      0.3,      100,      200, 
              2000,      500,     4000,      700,     7000,      0.1 /
       3,  'PUFLSBL',    '1',        1,     0.01,       60,   0.6142,        0,      0.5,        0, 
                 3,      0.1,     0.05,     0.06,     0.05,     0.07,     0.08,      0.1,     0.05, 
              0.04,        0,        0,        0,        0,        0,        0,        0,        0, 
                 0,        0,        0,        0,        0,        0,        0,        0,        0, 
                 0,        0,        0,        0,        0,        0,        0,        0,        0, 
                 0,        0,        0,        0,        0,        0,        0,        0,        0, 
                 0,        0,        0,        0,        0,        0,        0,        0 /
       3,   'CIM6BL',    '1',        1,     0.01,     0.09,      4.2,    0.035,     0.09,        0, 
                 0,        1,        0,      1.2,        0,        0,      1.5,      1.5,        0, 
                 0,        0,        0,        0,        0,        0,        1,        0 /
       4,   'UFLSBL',    '1',   0.0000,   0.0000,  59.5000,   0.3000,   0.0700,  59.3000,   0.3000, 
            0.0700,  59.1000,   0.3000,   0.0700,  58.9000,   0.3000,   0.0700,  59.5000,  10.0000, 
            0.0250 /
       4,   'CIM6BL',    '1',        1,     0.01,     0.09,      4.2,    0.035,     0.09,    0.012, 
              0.04,        1,        0,      1.2,        0,        0,      1.5,      1.5,        0, 
                 0,        0,        0,        0,        0,        0,        1,        0 /
       7,   'UFLSBL',    '1',   0.0000,   0.0000,  59.5000,   0.3000,   0.0700,  59.3000,   0.3000, 
            0.0700,  59.1000,   0.3000,   0.0700,  58.9000,   0.3000,   0.0700,  59.5000,  10.0000, 
            0.0250 /
       7,   'CIM6BL',    '1',        2,     0.01,     0.09,      4.2,    0.035,     0.09,    0.012, 
              0.04,        1,        0,      1.2,        0,        0,      1.5,      1.5,        0, 
                 0,        0,        0,        0,        0,        0,        1,        0 /
       8,   'UFLSBL',    '1',   0.0000,   0.0000,  59.5000,   0.3000,   0.0700,  59.3000,   0.3000, 
            0.0700,  59.1000,   0.3000,   0.0700,  58.9000,   0.3000,   0.0700,  59.5000,  10.0000, 
            0.0250 /
       8,   'IEELBL',    '1',        1,        0,        0,        1,        0,        0,        0, 
                 0,        2,        1,        0,        2,        1,        0 /
      12,   'UFLSBL',    '1',   0.0000,   0.0000,  59.5000,   0.3000,   0.0700,  59.3000,   0.3000, 
            0.0700,  59.1000,   0.3000,   0.0700,  58.9000,   0.3000,   0.0700,  59.5000,  10.0000, 
            0.0250 /
      12,   'IEELBL',    '1',        1,        0,        0,        1,        0,        0,        0, 
                 0,        2,        1,        0,        2,        1,        0 /
      15,   'UFLSBL',    '1',   0.0000,   0.0000,  59.5000,   0.3000,   0.0700,  59.3000,   0.3000, 
            0.0700,  59.1000,   0.3000,   0.0700,  58.9000,   0.3000,   0.0700,  59.5000,  10.0000, 
            0.0250 /
      15,   'IEELBL',    '1',        1,        0,        0,        1,        0,        0,        0, 
                 0,        2,        1,        0,        2,        1,        0 /
      16,   'UFLSBL',    '1',   0.0000,   0.0000,  59.5000,   0.3000,   0.0700,  59.3000,   0.3000, 
            0.0700,  59.1000,   0.3000,   0.0700,  58.9000,   0.3000,   0.0700,  59.5000,  10.0000, 
            0.0250 /
      16,   'IEELBL',    '1',        1,        0,        0,        1,        0,        0,        0, 
                 0,        2,        1,        0,        2,        1,        0 /
      18,   'UFLSBL',    '1',   0.0000,   0.0000,  59.5000,   0.3000,   0.0700,  59.3000,   0.3000, 
            0.0700,  59.1000,   0.3000,   0.0700,  58.9000,   0.3000,   0.0700,  59.5000,  10.0000, 
            0.0250 /
      18,   'IEELBL',    '1',        1,        0,        0,        1,        0,        0,        0, 
                 0,        2,        1,        0,        2,        1,        0 /
      20,   'UFLSBL',    '1',   0.0000,   0.0000,  59.5000,   0.3000,   0.0700,  59.3000,   0.3000, 
            0.0700,  59.1000,   0.3000,   0.0700,  58.9000,   0.3000,   0.0700,  59.5000,  10.0000, 
            0.0250 /
      20,   'IEELBL',    '1',        1,        0,        0,        1,        0,        0,        0, 
                 0,        2,        1,        0,        2,        1,        0 /
      21,   'UFLSBL',    '1',   0.0000,   0.0000,  59.5000,   0.3000,   0.0700,  59.3000,   0.3000, 
            0.0700,  59.1000,   0.3000,   0.0700,  58.9000,   0.3000,   0.0700,  59.5000,  10.0000, 
            0.0250 /
      21,   'IEELBL',    '1',        1,        0,        0,        1,        0,        0,        0, 
                 0,        2,        1,        0,        2,        1,        0 /