      1 'GENSAL' 1     8.9600      0.40000E-01  0.60000E-01   9.5515    
          0.0000      0.36140      0.23980      0.15050      0.99000E-01
         0.83200E-01   0.0000       0.0000    /
      1 'SEXS'   1    0.25000       4.0000       200.00      0.20000E-01
         -4.6000       6.0000    /
      1 'IEEEG3' 1    0.20000      0.50000E-01  0.15000     -0.15000    
          1.0000       0.0000      0.40000E-01  0.40000       5.0000    
          2.0000      0.50000       1.0000       1.5000       1.0000    /
      2 'GENROU' 1     6.0000      0.33000E-01  0.53500      0.78000E-01
          3.3333       0.0000       1.7200       1.6600      0.23000    
         0.37800      0.17090      0.10000       0.0000       0.0000    /
      2 'SEXS'   1    0.25000       4.0000       200.00      0.20000E-01
         -4.6000       6.0000    /
      2 'IEEEG1' 1          0           0        25.000       0.0000    
          0.0000      0.50000      0.10000     -0.10000       1.0000    
          0.0000      0.10000      0.30000       0.0000       7.0000    
         0.70000       0.0000       0.0000       0.0000       0.0000    
          0.0000       0.0000       0.0000    /
      3 'GENROU' 1     5.8900      0.33000E-01  0.60000      0.70000E-01
          2.3516       0.0000       1.6800       1.6100      0.23210    
         0.32000      0.13700      0.95000E-01   0.0000       0.0000    /
      3 'SEXS'   1    0.25000       4.0000       200.00      0.20000E-01
         -4.6000       6.0000    /
      3 'IEEEG1' 1          0           0        25.000       0.0000    
          0.0000      0.50000      0.10000     -0.10000       1.0000    
          0.0000      0.10000      0.30000       0.0000       7.0000    
         0.70000       0.0000       0.0000       0.0000       0.0000    
          0.0000       0.0000       0.0000    /
      0 'IEELAL' *    0.40000       0.0000      0.60000      0.40000    
          0.0000      0.60000       2.0000      -1.8000       2.0000    
          1.0000       0.0000       2.0000       1.0000       0.0000    /
