      1 'GENCLS' 1    9.5515        0.0000/
      2 'GENCLS' 1    3.3333       0.0000/
      3 'GENCLS' 1    2.3516       0.0000/
      0 'IEELAL' *    1.00000       0.0000      0.00000      1.00000    
          0.0000      0.00000       0.0000       0.0000       2.0000    
          1.0000       0.0000       2.0000       1.0000       0.0000    /
