     30 'GENROU' 1     10.200      0.30000E-01   1.5000      0.40000E-01
          4.2000       2.0000      0.10000E-01  0.69000E-02  0.31000E-02
         0.80000E-03  0.20000E-02  0.12500E-02   0.0000       0.0000    /
     31 'GENROU' 1     6.5600      0.30000E-01   1.5000      0.40000E-01
          3.0300       2.0000      0.29500E-01  0.28200E-01  0.69700E-02
         0.17000E-01  0.20000E-02  0.35000E-02   0.0000       0.0000    /
     32 'GENROU' 1     5.7000      0.30000E-01   1.5000      0.40000E-01
          3.5800       2.0000      0.24950E-01  0.23700E-01  0.53100E-02
         0.87600E-02  0.20000E-02  0.30400E-02   0.0000       0.0000    /
     33 'GENROU' 1     5.6900      0.30000E-01   1.5000      0.40000E-01
          2.8600       2.0000      0.26200E-01  0.25800E-01  0.43600E-02
         0.16600E-01  0.20000E-02  0.29500E-02   0.0000       0.0000    /
     33 'IEEET1' 1    0.10000E-01   20.000      0.20000E-01   10.000    
         -10.000       1.0000       1.5000      0.40000E-01  0.70000    
          0.0000       1.6500      0.12000       2.2000      0.54000    /
     34 'GENROU' 1     5.4000      0.30000E-01  0.44000      0.40000E-01
          2.6000       2.0000      0.67000E-01  0.62000E-01  0.13200E-01
         0.16600E-01  0.20000E-02  0.54000E-02   0.0000       0.0000    /
     34 'IEEET1' 1    0.10000E-01   20.000      0.20000E-01   10.000    
         -10.000       1.0000       1.5000      0.40000E-01  0.70000    
          0.0000       1.6500      0.12000       2.2000      0.54000    /
     35 'GENROU' 1     7.3000      0.30000E-01  0.40000      0.40000E-01
          3.4800       2.0000      0.25400E-01  0.24100E-01  0.50000E-02
         0.81400E-02  0.20000E-02  0.22400E-02   0.0000       0.0000    /
     35 'IEEET1' 1    0.10000E-01   20.000      0.20000E-01   10.000    
         -10.000       1.0000       1.5000      0.40000E-01  0.70000    
          0.0000       1.6500      0.12000       2.2000      0.54000    /
     36 'GENROU' 1     5.6600      0.30000E-01   1.5000      0.40000E-01
          2.6400       2.0000      0.29500E-01  0.29200E-01  0.49000E-02
         0.18600E-01  0.20000E-02  0.32200E-02   0.0000       0.0000    /
     36 'IEEET1' 1    0.10000E-01   20.000      0.20000E-01   10.000    
         -10.000       1.0000       1.5000      0.40000E-01  0.70000    
          0.0000       1.6500      0.12000       2.2000      0.54000    /
     37 'GENROU' 1     6.7000      0.30000E-01  0.41000      0.40000E-01
          2.4300       2.0000      0.29000E-01  0.28000E-01  0.57000E-02
         0.91100E-02  0.20000E-02  0.28000E-02   0.0000       0.0000    /
     37 'IEEET1' 1    0.10000E-01   20.000      0.20000E-01   10.000    
         -10.000       1.0000       1.5000      0.40000E-01  0.70000    
          0.0000       1.6500      0.12000       2.2000      0.54000    /
     38 'GENROU' 1     4.7900      0.30000E-01   1.9600      0.40000E-01
          3.4500       2.0000      0.21060E-01  0.20500E-01  0.57000E-02
         0.58700E-02  0.20000E-02  0.29800E-02   0.0000       0.0000    /
     38 'IEEET1' 1    0.10000E-01   20.000      0.20000E-01   10.000    
         -10.000       1.0000       1.5000      0.40000E-01  0.70000    
          0.0000       1.6500      0.12000       2.2000      0.54000    /
     39 'GENROU' 1     7.0000      0.30000E-01  0.70000      0.40000E-01
          5.0000       2.0000      0.20000E-02  0.19000E-02  0.60000E-03
         0.80000E-03  0.20000E-03  0.30000E-03   0.0000       0.0000    /
     39 'IEEET1' 1    0.10000E-01   20.000      0.20000E-01   10.000    
         -10.000       1.0000       1.5000      0.40000E-01  0.70000    
          0.0000       1.6500      0.12000       2.2000      0.54000    /
      0 'IEELAL' *    0.40000       0.0000      0.60000      0.40000    
          0.0000      0.60000       2.0000      -1.8000       2.0000    
          1.0000       0.0000       2.0000       1.0000       0.0000    /
