     30 'GENROU' 1     10.200      0.30000E-01   1.5000      0.40000E-01
          4.2000       2.0000      0.10000E-01  0.69000E-02  0.31000E-02
         0.80000E-03  0.20000E-02  0.12500E-02   0.0000       0.0000    /
     30 'IEEET1' 1    0.10000E-01   20.000      0.20000E-01   10.000    
         -10.000       1.0000       1.5000      0.40000E-01  0.70000    
          0.0000       1.6500      0.12000       2.2000      0.54000    /
     30 'IEEEG1' 1          0           0        20.000       0.0000    
          0.0000      0.20000      0.10000     -0.10000      0.66000    
          0.0000       1.6000       1.0000       0.0000      0.10000E+06
          0.0000       0.0000       999.00       0.0000       0.0000    
          999.00       0.0000       0.0000    /
     31 'GENROU' 1     6.5600      0.30000E-01   1.5000      0.40000E-01
          3.0300       2.0000      0.29500E-01  0.28200E-01  0.69700E-02
         0.17000E-01  0.20000E-02  0.35000E-02   0.0000       0.0000    /
     31 'IEEET1' 1    0.10000E-01   20.000      0.20000E-01   10.000    
         -10.000       1.0000       1.5000      0.40000E-01  0.70000    
          0.0000       1.6500      0.12000       2.2000      0.54000    /
     31 'IEEEG1' 1          0           0        20.000       0.0000    
          0.0000      0.45000      0.10000     -0.10000      0.66000    
          0.0000       54.100       1.0000       0.0000      0.10000E+06
          0.0000       0.0000       999.00       0.0000       0.0000    
          999.00       0.0000       0.0000    /
     32 'GENROU' 1     5.7000      0.30000E-01   1.5000      0.40000E-01
          3.5800       2.0000      0.24950E-01  0.23700E-01  0.53100E-02
         0.87600E-02  0.20000E-02  0.30400E-02   0.0000       0.0000    /
     32 'IEEET1' 1    0.10000E-01   20.000      0.20000E-01   10.000    
         -10.000       1.0000       1.5000      0.40000E-01  0.70000    
          0.0000       1.6500      0.12000       2.2000      0.54000    /
     32 'IEEEG1' 1          0           0        20.000       0.0000    
          0.0000       3.0000      0.10000     -0.10000      0.77000    
          0.0000       10.000       1.0000       0.0000      0.10000E+06
          0.0000       0.0000       999.00       0.0000       0.0000    
          999.00       0.0000       0.0000    /
     33 'GENROU' 1     5.6900      0.30000E-01   1.5000      0.40000E-01
          2.8600       2.0000      0.26200E-01  0.25800E-01  0.43600E-02
         0.16600E-01  0.20000E-02  0.29500E-02   0.0000       0.0000    /
     33 'IEEET1' 1    0.10000E-01   20.000      0.20000E-01   10.000    
         -10.000       1.0000       1.5000      0.40000E-01  0.70000    
          0.0000       1.6500      0.12000       2.2000      0.54000    /
     33 'IEEEG1' 1          0           0        20.000       0.0000    
          0.0000      0.24000      0.10000     -0.10000      0.77000    
          0.0000       10.180       1.0000       0.0000      0.10000E+06
          0.0000       0.0000       999.00       0.0000       0.0000    
          999.00       0.0000       0.0000    /
     34 'GENROU' 1     5.4000      0.30000E-01  0.44000      0.40000E-01
          2.6000       2.0000      0.67000E-01  0.62000E-01  0.13200E-01
         0.16600E-01  0.20000E-02  0.54000E-02   0.0000       0.0000    /
     34 'IEEET1' 1    0.10000E-01   20.000      0.20000E-01   10.000    
         -10.000       1.0000       1.5000      0.40000E-01  0.70000    
          0.0000       1.6500      0.12000       2.2000      0.54000    /
     34 'IEEEG1' 1          0           0        20.000       0.0000    
          0.0000      0.12000      0.10000     -0.10000      0.66000    
          0.0000       9.7900       1.0000       0.0000      0.10000E+06
          0.0000       0.0000       999.00       0.0000       0.0000    
          999.00       0.0000       0.0000    /
     35 'GENROU' 1     7.3000      0.30000E-01  0.40000      0.40000E-01
          3.4800       2.0000      0.25400E-01  0.24100E-01  0.50000E-02
         0.81400E-02  0.20000E-02  0.22400E-02   0.0000       0.0000    /
     35 'IEEET1' 1    0.10000E-01   20.000      0.20000E-01   10.000    
         -10.000       1.0000       1.5000      0.40000E-01  0.70000    
          0.0000       1.6500      0.12000       2.2000      0.54000    /
     35 'IEEEG1' 1          0           0        20.000       0.0000    
          0.0000       3.0000      0.10000     -0.10000      0.77000    
          0.0000       10.000       1.0000       0.0000      0.10000E+06
          0.0000       0.0000       999.00       0.0000       0.0000    
          999.00       0.0000       0.0000    /
/     36 'WT3G0'  1       560    1.5   0.02  0.2   0.02  0.5   0.9  1.22  
/         0.02  0.8  20.0 
/         0.0   0.0  0.1  -0.1 /
     36 'WT3G2'  1   0.02   0.02   0.0   0.0  0.1  1.5
         0.5   0.9  1.22  0.8  20.0   0.2   0.02/
     36 'AERD0'  1    0    3  13.0  1.0   1.25  0.7   1.2  1.25 
         0.5176   116.0  0.4  5.0  21.0  0.0068  0.08  0.035/
     36 'WT3T0'  1   2.5,  0.5  0.3  1.0  0.0/
     36 'WT3E0'  1   0  0  1
         0.0,  0.02,  1.0,  18.0,  0.05,  5.0,  -0.5,  0.5, 0.15,  0.05,  
         0.1,  0.9,  1.1,  10.0,  -1.5,  1.45, 
         10.0,  0.0,  0.00001,  20.0,  1.0,  100.0,  0.1,  0.0, 0.0, 0.0
         -0.45,  0.45,  0.05,  0.04,  1.12,  1.1/
/     36 'WT3P0'  1   0, 60.0,  150.0,  25.0,  0.2,  0.0, 0.0, 0.0,  0.0, 0.0,  0.1,  90.0,  0.0, 90.0  1.0/ 
     36 'WTRLY0' 1
                 0
                 2  0.4  0.1  1.3  0.1
                 2  0.75 0.1  1.05 0.1
                 2  0.7  0.1  1.3 0.1 /     
     /36 'FILEWIND' 1 'wind.csv' /
/     37 'WT3G0'  1       560    1.5   0.02  0.2   0.02  0.5   0.9  1.22  
/         0.02  0.8  20.0 
/         0.0   0.0  0.1  -0.1 /
     37 'WT3G2'  1   0.02   0.02   0.0   0.0  0.1  1.5
         0.5   0.9  1.22  0.8  20.0   0.2   0.02/
     37 'AERD0'  1    0    3  13.0  1.0   1.25  0.7   1.2  1.25 
         0.5176   116.0  0.4  5.0  21.0  0.0068  0.08  0.035/
     37 'WT3T0'  1   2.5,  0.5  0.3  1.0  0.0/
     37 'WT3E0'  1   0  0  1
         0.0,  0.02,  1.0,  18.0,  0.05,  5.0,  -0.5,  0.5, 0.15,  0.05,  
         0.1,  0.9,  1.1,  10.0,  -1.5,  1.45, 
         60.0,  3.0,  0.6,  20.0,  1.0,  15.0,  0.1,  0.0, 0.0, 0.0
         -0.45,  0.45,  0.05,  0.04,  1.12,  1.1/
     37 'WT3P0'  1   0, 60.0,  150.0,  25.0,  0.2,  0.0, 0.0, 0.0,  0.0, 0.0,  0.1,  90.0,  0.0, 90.0  1.0/ 
     37 'WTRLY0' 1
                 0
                 2  0.4  0.1  1.3  0.1
                 2  0.97 0.1  1.05 0.1
                 2  0.7  0.1  1.3 0.1 /
/     37 'FILEWIND' 1 'wind.csv' /
     38 'GENROU' 1     4.7900      0.30000E-01   1.9600      0.40000E-01
          3.4500       2.0000      0.21060E-01  0.20500E-01  0.57000E-02
         0.58700E-02  0.20000E-02  0.29800E-02   0.0000       0.0000    /
     38 'IEEET1' 1    0.10000E-01   20.000      0.20000E-01   10.000    
         -10.000       1.0000       1.5000      0.40000E-01  0.70000    
          0.0000       1.6500      0.12000       2.2000      0.54000    /
     38 'IEEEG1' 1          0           0        20.000       0.0000    
          0.0000      0.38000      0.10000     -0.10000      0.99000    
          0.0000       6.1000       1.0000       0.0000      0.10000E+06
          0.0000       0.0000       999.00       0.0000       0.0000    
          999.00       0.0000       0.0000    /
     39 'GENROU' 1     7.0000      0.30000E-01  0.70000      0.40000E-01
          5.000       2.0000      0.20000E-02  0.19000E-02  0.60000E-03
         0.80000E-03  0.20000E-03  0.30000E-03   0.0000       0.0000    /
     39 'IEEET1' 1    0.10000E-01   20.000      0.20000E-01   10.000    
         -10.000       1.0000       1.5000      0.40000E-01  0.70000    
          0.0000       1.6500      0.12000       2.2000      0.54000    /
     39 'IEEEG1' 1          0           0        20.000       0.0000    
          0.0000       2.0000      0.10000     -0.10000       1.1000    
          0.0000       10.000       1.0000       0.0000      0.10000E+06
          0.0000       0.0000       999.00       0.0000       0.0000    
          999.00       0.0000       0.0000    /
      0 'IEELAL' *    0.40000       0.0000      0.60000      0.40000    
          0.0000      0.60000       2.0000      -1.8000       2.0000    
          1.0000       0.0000       2.0000       1.0000       0.0000    /
