      1 'GENSAL' 1     8.9600      0.40000E-01  0.60000E-01   9.5515    
          0.0000      0.36140      0.23980      0.15050      0.99000E-01
         0.83200E-01   0.0000       0.0000    /
      1 'SEXS'   1    0.25000       4.0000       200.00      0.20000E-01
         -4.6000       6.0000    /
      1 'IEEEG3' 1    0.20000      0.50000E-01  0.15000     -0.15000    
          1.0000       0.0000      0.40000E-01  0.40000       5.0000    
          2.0000      0.50000       1.0000       1.5000       1.0000    /
      2 'GENROU' 1     6.0000      0.33000E-01  0.53500      0.78000E-01
          3.3333       0.0000       1.7200       1.6600      0.23000    
         0.37800      0.17090      0.10000       0.0000       0.0000    /
      2 'SEXS'   1    0.25000       4.0000       200.00      0.20000E-01
         -4.6000       6.0000    /
      2 'IEEEG1' 1          0           0        25.000       0.0000    
          0.0000      0.50000      0.10000     -0.10000       1.0000    
          0.0000      0.10000      0.30000       0.0000       7.0000    
         0.70000       0.0000       0.0000       0.0000       0.0000    
          0.0000       0.0000       0.0000    /
      3 'WT3G2'  1       85    1.05   0.02  0.2   0.02  0.5   0.9  1.22  
         0.02  0.8  20.0 
         0.0   0.0  0.1  -0.1 /
      3 'AERD0'  1     0    3  13.0  1.0   1.25  0.7   1.2  1.25 
         0.22   116.0  0.4  5.0  12.5 0.0/
      3 'WT3T0'  1   4.33,  0.62  1.11  1.5  0.0/
      3 'WT3E0'  1   0  0  1
         0.0,  0.02,  1.0,  18.0,  0.05,  5.0,  -0.5,  0.5, 0.15,  0.05,  
         0.1,  0.9,  1.1,  40.0,  -0.5,  1.45, 
         60.0,  3.0,  0.6,  5.0,  0.2,  0.0,  0.2,  0.0, 0.0, 20.0
         -0.45,  0.45,  0.05,  0.04,  1.12,  1.1/
      3 'WT3P0'  1   0 60.0,  150.0,  25.0,  0.5, 1.0, 1.0, 0.0,  0.0,  0.0, 1.0, 3.0,  0.0, 27.0  0.30/
      3 'FILEWIND' 1 'wind.csv' /
      0 'IEELAL' *    1.00000       0.0000      0.00000      1.00000    
          0.0000      0.00000       0.0000       0.0000       2.0000    
          1.0000       0.0000       2.0000       1.0000       0.0000    /
