       1,   'GENCLS',    '1',   9.5515,        0 /
       2,   'GENCLS',    '1',   3.3333,        0 /
       3,   'GENCLS',    '1',   2.3516,        0 /
       5,   'IEELBL',    '1',        1,        0,        0,        1,        0,        0,        0, 
                 0,        2,        1,        0,        2,        1,        0 /
       6,   'IEELBL',    '1',        1,        0,        0,        1,        0,        0,        0, 
                 0,        2,        1,        0,        2,        1,        0 /
       8,   'IEELBL',    '1',        1,        0,        0,        1,        0,        0,        0, 
                 0,        2,        1,        0,        2,        1,        0 /
