      1 'GENCLS' 1    9.5515        0.0000/
      2 'GENCLS' 1    3.3333        0.0000/
      3 'WT3G2'  1       85    0.2   0.2   0.0   0.0  0.1    1.5
         0.5   0.8  20.0  0.8  20.0 0.2  0.1/
      3 'AERD0'  1       1    2  13.0  1.0   1.25  0.7   1.2  1.25 
         0.22   116.0  0.4  5.0  -12.5 0.0/
      3 'WT3T0'  1   0.0,  2.0  20.0  2.0  0.1/
      3 'WT3E0'  1   0  0  1
         0.1,  0.1,  1.0,  10.0,  0.2,  20.0,  -0.5,  1.5, 0.5,  0.3,  
         5.0,  0.9,  1.3,  1.5,  -1.0,  1.5, 
         0.5,  2.0,  3.0,  0.0,  0.2,  0.0,  0.2,  
         -0.1,  0.1,  0.4,  0.3,  1.2,  1.5/
      3 'WT3P0'  1   0.5,  1.0,  2.0,  1.0, 1.0, 1.0,  2.0,  3.0,  0.0, 30.0/
      0 'IEELAL' *    1.00000       0.0000      0.00000      1.00000    
          0.0000      0.00000       0.0000       0.0000       2.0000    
          1.0000       0.0000       2.0000       1.0000       0.0000    /
