0,   100.00, 31, 0, 1, 60.00     / PSS(R)E-31.0    THU, JUN 01 2017  16:37
NPCC 48-MACHINE TESTBED, CONVERTED FROM PST BY BIN WANG
REVISED BY CHANGGANG LI, 02/12/2013
     1,'MILLSTONE PT', 345.0000,1,   1,   1,   1,1.01107,   4.9612
     2,'MONTVILLE   ', 345.0000,1,   1,   1,   1,1.00672,   4.1683
     3,'MONTVILLE   ', 115.0000,1,   1,   1,   1,1.04699,   4.1170
     4,'MONTVILLE   ', 345.0000,1,   1,   1,   1,1.00763,   4.2100
     5,'CARD ST     ', 345.0000,1,   1,   1,   1,1.00377,   2.4453
     6,'SHERMAN RD  ', 345.0000,1,   1,   1,   1,1.00701,   1.9345
     7,'MEDWAY      ', 345.0000,1,   1,   1,   1,1.02328,   3.3260
     8,'MILLBURY    ', 115.0000,1,   1,   1,   1,1.02258,   2.0705
     9,'CARPENTER HL', 115.0000,1,   1,   1,   1,1.01818,   1.1538
    10,'BRAYTON PT  ', 115.0000,1,   1,   1,   1,1.04203,   7.9691
    11,'BRAYTON PT  ', 115.0000,1,   1,   1,   1,0.98411,   6.4939
    12,'BRIDGEWATER ', 115.0000,1,   1,   1,   1,1.02509,   5.9970
    13,'PILGRIM     ', 345.0000,1,   1,   1,   1,1.04576,  10.7243
    14,'CANAL       ', 345.0000,1,   1,   1,   1,1.03995,  10.4361
    15,'WALPOLA     ', 345.0000,1,   1,   1,   1,1.02922,   3.5002
    16,'VERMONT YNK ', 345.0000,1,   1,   1,   1,1.03938,   4.5594
    17,'SCOBIE      ', 345.0000,1,   1,   1,   1,1.03978,   3.3535
    18,'SANDY POND  ', 115.0000,1,   1,   1,   1,1.02600,   1.5818
    19,'POWNAL      ', 345.0000,1,   1,   1,   1,1.04085,   6.5464
    20,'MAINE YANKEE', 345.0000,1,   1,   1,   1,1.04162,   9.2268
    21,'MILLSTONE PT',  24.0000,2,   1,   1,   1,0.98000,  13.0313
    22,'BRAYTON PT  ',  18.0000,2,   1,   1,   1,0.99000,  13.2640
    23,'BRAYTON PT  ',  20.0000,2,   1,   1,   1,1.00660,  11.6945
    24,'PILGRIM     ',  22.8000,2,   1,   1,   1,1.05000,  16.0859
    25,'CANAL       ',  20.0000,2,   1,   1,   1,1.06000,  18.3505
    26,'MAINE YANKEE',  20.0000,2,   1,   1,   1,1.02000,  16.1278
    27,'VERMONT YNK ',  22.0000,2,   1,   1,   1,1.02000,  11.5013
    28,'NORTHFIELD  ',  13.8000,1,   1,   1,   1,1.05069,   3.3401
    29,'NORTHFIELD  ', 345.0000,1,   1,   1,   1,1.02506,   3.3401
    30,'LUDLOW      ', 345.0000,1,   1,   1,   1,1.01465,   0.8125
    31,'MANCHESTER  ', 345.0000,1,   1,   1,   1,0.99469,   0.4810
    32,'SCOVILL ROCK', 345.0000,1,   1,   1,   1,0.99917,   1.9384
    33,'HADDAM NECK ', 345.0000,1,   1,   1,   1,1.00191,   2.6436
    34,'BLACK POND  ', 345.0000,1,   1,   1,   1,0.99177,   0.5791
    35,'SOUTHINGTEN ', 345.0000,1,   1,   1,   1,0.99105,   0.1502
    36,'CONN YANKEE ', 345.0000,2,   1,   1,   1,0.98000,  11.1824
    37,'NEW SEATHED ', 345.0000,1,   2,   1,   1,1.03599,   4.7965
    38,'GILBOA      ', 345.0000,1,   2,   1,   1,1.03551,   7.1725
    39,'LEEDS       ', 345.0000,1,   2,   1,   1,1.03490,   3.4078
    40,'NEW SEATHED ', 230.0000,1,   2,   1,   1,1.00180,   0.6992
    41,'ROTTERDAM   ', 115.0000,1,   2,   1,   1,1.03468,  -3.1374
    42,'ALBANY      ', 115.0000,2,   2,   1,   1,1.04000,  -2.2463
    43,'EDIC        ', 345.0000,1,   2,   1,   1,1.04377,   8.6427
    44,'PORTER      ', 230.0000,1,   2,   1,   1,1.04012,   6.8622
    45,'PORTER      ', 115.0000,1,   2,   1,   1,1.03794,   4.2374
    46,'COLTON      ', 115.0000,1,   2,   1,   1,1.04326,   6.6463
    47,'MOSES W     ', 230.0000,2,   2,   1,   1,1.03000,  12.1833
    48,'MOSES E     ', 230.0000,2,   2,   1,   1,1.05000,  15.5487
    49,'PLATTSBURGH ', 115.0000,1,   2,   1,   1,0.94350,  -0.9376
    50,'CLAY        ', 345.0000,2,   2,   1,   1,1.05000,  13.5442
    51,'CLAY        ', 115.0000,2,   2,   1,   1,1.04000,   8.8228
    52,'ROCHESTER   ', 345.0000,1,   2,   1,   1,1.04054,  19.8509
    53,'ROCHESTER   ', 115.0000,2,   2,   1,   1,1.03000,  18.4382
    54,'NIAGARA W   ', 230.0000,2,   2,   1,   1,1.04080,  27.5137
    55,'NIAGARA E   ', 230.0000,2,   2,   1,   1,1.04000,  26.8086
    56,'HUNTLEY     ', 230.0000,2,   2,   1,   1,1.03000,  27.4225
    57,'HUNTLEY     ', 115.0000,2,   2,   1,   1,1.03000,  26.3768
    58,'GARDENVILLE ', 230.0000,1,   2,   1,   1,1.00204,  25.0968
    59,'GARDENVILLE ', 115.0000,1,   2,   1,   1,1.02318,  22.7761
    60,'DUNKIRK     ', 230.0000,2,   2,   1,   1,1.04000,  30.8063
    61,'DUNKIRK     ', 115.0000,2,   2,   1,   1,1.04000,  27.4938
    62,'STOLLE RD   ', 230.0000,1,   2,   1,   1,1.01038,  24.4573
    63,'MEYER       ', 230.0000,1,   2,   1,   1,1.00281,  17.9638
    64,'MEYER       ', 115.0000,1,   2,   1,   1,1.00553,  14.8702
    65,'GESONIDGE   ', 115.0000,2,   2,   1,   1,1.04000,  16.1145
    66,'WATERCURE   ', 345.0000,1,   2,   1,   1,1.01931,  20.9889
    67,'WRHL        ', 230.0000,1,   2,   1,   1,1.00205,  16.8375
    68,'HILLSIDE    ', 115.0000,2,   2,   1,   1,0.99000,  12.9223
    69,'BINGHAMTON  ', 345.0000,1,   2,   1,   1,1.01776,  14.5110
    70,'BINGHAMTON  ', 230.0000,1,   2,   1,   1,0.99874,  13.7559
    71,'BINGHAMTON  ', 115.0000,2,   2,   1,   1,1.00000,  11.3333
    72,'LAPEER      ', 115.0000,2,   2,   1,   1,1.05000,  10.3678
    73,'PLEASANT VLY', 345.0000,1,   3,   1,   1,1.02950,   1.7092
    74,'MILLWOOD    ', 345.0000,1,   3,   1,   1,1.02682,   0.3075
    75,'RAMAPO      ', 138.0000,1,   3,   1,   1,1.04254,   1.2253
    76,'RAMAPO      ', 345.0000,1,   3,   1,   1,1.04847,   0.7647
    77,'BUCHANAN    ', 345.0000,1,   3,   1,   1,1.03605,   0.5505
    78,'CE UG       ', 345.0000,3,   3,   1,   1,1.02000,   0.0000
    79,'RAV A-3     ',  22.0000,2,   3,   1,   1,1.05000,   8.1715
    80,'NORTHPORT   ', 138.0000,2,   3,   1,   1,1.02320,   0.6309
    81,'GOETHALS    ', 345.0000,1,   3,   1,   1,1.02080,  -3.3138
    82,'AK-3        ',  22.0000,2,   3,   1,   1,1.05000,   7.5680
    83,'KEITH       ', 220.0000,1,   4,   1,   1,1.00980,  23.2350
    84,'KEITH JCT   ', 118.1000,1,   4,   1,   1,1.01377,  23.7156
    85,'LAMBTON     ', 220.0000,1,   4,   1,   1,1.07974,  35.0337
    86,'LAMBTON     ',  24.0000,2,   4,   1,   1,1.00000,  40.4134
    87,'LAMBTON     ', 220.0000,1,   4,   1,   1,1.01963,  32.9708
    88,'SCOTT       ', 220.0000,1,   4,   1,   1,1.05144,  31.9701
    89,'SCOTT       ', 220.0000,1,   4,   1,   1,1.01836,  29.6439
    90,'VIDA        ', 220.0000,1,   4,   1,   1,1.01273,  29.5484
    91,'RICHVIEW    ', 220.0000,2,   4,   1,   1,1.04000,  12.2572
    92,'HANMER      ', 500.0000,2,   4,   1,   1,1.04000,  19.7467
    93,'ESSA        ', 220.0000,1,   4,   1,   1,0.97658,   8.7633
    94,'ORANGEVILLE ', 220.0000,1,   4,   1,   1,0.97699,   9.0041
    95,'DES JOAC    ', 220.0000,1,   4,   1,   1,0.97889,  15.6876
    96,'HOLDEN      ',  13.8000,1,   4,   1,   1,1.02600,  16.2550
    97,'MARTINDELE  ', 220.0000,2,   4,   1,   1,1.04000,  15.1199
    98,'STLA        ', 220.0000,2,   4,   1,   1,1.04000,  32.7424
    99,'PVR         ', 220.0000,1,   4,   1,   1,1.03956,  32.0634
   100,'PHAS        ', 220.0000,1,   4,   1,   1,1.04276,  26.8891
   101,'SAB 2       ', 220.0000,2,   4,   1,   1,1.05000,  25.1055
   102,'BP 76       ', 220.0000,1,   4,   1,   1,1.02112,  26.2474
   103,'PA 27       ', 220.0000,1,   4,   1,   1,1.01172,  26.0565
   104,'BEACH       ', 220.0000,1,   4,   1,   1,1.00657,  14.1420
   105,'BUCHANAN    ', 220.0000,1,   4,   1,   1,1.03174,  24.3525
   106,'NEALE       ', 220.0000,1,   4,   1,   1,1.00901,  15.5283
   107,'NEALE       ', 220.0000,1,   4,   1,   1,1.01879,  16.8216
   108,'S CT        ', 220.0000,1,   4,   1,   1,1.00992,  14.8727
   109,'SLT         ', 220.0000,1,   4,   1,   1,1.00990,  14.8490
   110,'BURLINGTON  ', 220.0000,1,   4,   1,   1,1.01077,  13.4254
   111,'DETWIERER   ', 220.0000,1,   4,   1,   1,0.98296,  11.1930
   112,'CHATHAM     ', 220.0000,1,   4,   1,   1,1.04852,  29.1373
   113,'LAUZON      ', 118.1000,1,   4,   1,   1,1.01072,  22.7684
   114,'MARYSVILLE  ', 220.0000,1,   5,   1,   1,1.00591,  30.0731
   115,'ST CLAIR    ', 500.0000,2,   5,   1,   1,1.02000,  32.7993
   116,'WATERMAN    ', 220.0000,1,   5,   1,   1,1.00709,  26.4638
   117,'PONTIAC     ', 230.0000,1,   5,   1,   1,1.00617,  30.2961
   118,'WAYNE       ', 115.0000,1,   5,   1,   1,1.00028,  31.2535
   119,'THETFORD    ', 220.0000,2,   5,   1,   1,1.00000,  29.6929
   120,'ARGENTA     ', 220.0000,2,   5,   1,   1,1.02000,  26.1486
   121,'SC415       ', 220.0000,2,   5,   1,   1,1.04000,  32.3859
   122,'WATERMAN    ', 220.0000,2,   5,   1,   1,1.05000,  31.9059
   123,'MONROE      ', 230.0000,2,   5,   1,   1,1.01000,  37.0746
   124,'BRANCHBURG  ', 230.0000,1,   6,   1,   1,1.04168,   2.3449
   125,'LINDON      ', 230.0000,1,   6,   1,   1,1.02073,  -3.4463
   126,'HUDSON      ', 230.0000,1,   6,   1,   1,1.02076,  -5.4447
   127,'ALBURTIS    ', 500.0000,1,   6,   1,   1,1.04633,   6.5241
   128,'WHITPAIN    ', 500.0000,1,   6,   1,   1,1.03750,   2.6944
   129,'KEENEY      ', 500.0000,1,   6,   1,   1,1.02293,   8.9022
   130,'PEACH BOTTOM', 500.0000,2,   6,   1,   1,1.02000,  12.1583
   131,'CONASTONE   ', 500.0000,1,   6,   1,   1,1.02607,  13.3688
   132,'JUNIATA     ', 500.0000,1,   6,   1,   1,1.03928,  19.5394
   133,'CONEMAUGH   ', 500.0000,2,   6,   1,   1,1.02000,  34.3083
   134,'HOMER CITY  ', 230.0000,2,   6,   1,   1,1.03000,  25.6415
   135,'KEYSTONE    ', 500.0000,2,   6,   1,   1,1.02000,  34.9611
   136,'ERIE W      ', 345.0000,1,   6,   1,   1,1.00058,  19.7151
   137,'ERIE S      ', 230.0000,2,   6,   1,   1,1.04000,  20.3252
   138,'E TOMANO    ', 230.0000,1,   6,   1,   1,0.97003,  13.6727
   139,'KYGER       ', 345.0000,2,   6,   1,   1,1.01000,  29.1651
   140,'TE          ', 230.0000,1,   6,   1,   1,1.04132,  30.7985
0 / END OF BUS DATA, BEGIN LOAD DATA
     3,'1 ',1,   1,   1,     9.000,    88.000,     0.000,     0.000,     0.000,     0.000,   1
     6,'1 ',1,   1,   1,   320.000,   153.000,     0.000,     0.000,     0.000,     0.000,   1
     7,'1 ',1,   1,   1,   329.000,    32.000,     0.000,     0.000,     0.000,     0.000,   1
     9,'1 ',1,   1,   1,   158.000,    30.000,     0.000,     0.000,     0.000,     0.000,   1
    11,'1 ',1,   1,   1,   680.000,   103.000,     0.000,     0.000,     0.000,     0.000,   1
    12,'1 ',1,   1,   1,   274.000,   115.000,     0.000,     0.000,     0.000,     0.000,   1
    14,'1 ',1,   1,   1,   248.000,    85.000,     0.000,     0.000,     0.000,     0.000,   1
    15,'1 ',1,   1,   1,   309.000,   -92.000,     0.000,     0.000,     0.000,     0.000,   1
    16,'1 ',1,   1,   1,   224.000,    47.000,     0.000,     0.000,     0.000,     0.000,   1
    17,'1 ',1,   1,   1,   139.000,    17.000,     0.000,     0.000,     0.000,     0.000,   1
    18,'1 ',1,   1,   1,   281.000,    76.000,     0.000,     0.000,     0.000,     0.000,   1
    19,'1 ',1,   1,   1,   206.000,    28.000,     0.000,     0.000,     0.000,     0.000,   1
    20,'1 ',1,   1,   1,   284.000,    27.000,     0.000,     0.000,     0.000,     0.000,   1
    30,'1 ',1,   1,   1,   322.000,     2.000,     0.000,     0.000,     0.000,     0.000,   1
    31,'1 ',1,   1,   1,   500.000,   184.000,     0.000,     0.000,     0.000,     0.000,   1
    34,'1 ',1,   1,   1,   234.000,    84.000,     0.000,     0.000,     0.000,     0.000,   1
    35,'1 ',1,   1,   1,   522.000,   177.000,     0.000,     0.000,     0.000,     0.000,   1
    36,'1 ',1,   1,   1,     9.000,     5.000,     0.000,     0.000,     0.000,     0.000,   1
    41,'1 ',1,   2,   1,   700.000,   150.000,     0.000,     0.000,     0.000,     0.000,   1
    42,'1 ',1,   2,   1,   177.000,    17.000,     0.000,     0.000,     0.000,     0.000,   1
    45,'1 ',1,   2,   1,   256.000,    42.000,     0.000,     0.000,     0.000,     0.000,   1
    46,'1 ',1,   2,   1,   177.000,    25.000,     0.000,     0.000,     0.000,     0.000,   1
    46,'2 ',1,   2,   1,  -154.000,   -67.500,     0.000,     0.000,     0.000,     0.000,   1
    47,'1 ',1,   2,   1,   528.000,   160.000,     0.000,     0.000,     0.000,     0.000,   1
    49,'1 ',1,   2,   1,   208.000,    47.000,     0.000,     0.000,     0.000,     0.000,   1
    51,'1 ',1,   2,   1,   731.000,   100.000,     0.000,     0.000,     0.000,     0.000,   1
    53,'1 ',1,   2,   1,   923.000,   250.000,     0.000,     0.000,     0.000,     0.000,   1
    54,'1 ',1,   2,   1,    20.000,     0.000,     0.000,     0.000,     0.000,     0.000,   1
    55,'1 ',1,   2,   1,   939.000,   134.000,     0.000,     0.000,     0.000,     0.000,   1
    56,'1 ',1,   2,   1,   172.000,    50.000,     0.000,     0.000,     0.000,     0.000,   1
    57,'1 ',1,   2,   1,   240.000,    -6.000,     0.000,     0.000,     0.000,     0.000,   1
    58,'1 ',1,   2,   1,    84.000,    40.000,     0.000,     0.000,     0.000,     0.000,   1
    59,'1 ',1,   2,   1,   705.000,   248.000,     0.000,     0.000,     0.000,     0.000,   1
    61,'1 ',1,   2,   1,   237.000,    12.000,     0.000,     0.000,     0.000,     0.000,   1
    64,'1 ',1,   2,   1,   143.000,    25.000,     0.000,     0.000,     0.000,     0.000,   1
    65,'1 ',1,   2,   1,    91.000,     0.000,     0.000,     0.000,     0.000,     0.000,   1
    68,'1 ',1,   2,   1,   211.000,    41.000,     0.000,     0.000,     0.000,     0.000,   1
    71,'1 ',1,   2,   1,   371.000,    53.000,     0.000,     0.000,     0.000,     0.000,   1
    74,'1 ',1,   3,   1,   102.000,     0.000,     0.000,     0.000,     0.000,     0.000,   1
    78,'1 ',1,   3,   1,  2000.000,   600.000,     0.000,     0.000,     0.000,     0.000,   1
    80,'1 ',1,   3,   1,   700.000,    25.000,     0.000,     0.000,     0.000,     0.000,   1
    83,'1 ',1,   4,   1,    80.000,    16.000,     0.000,     0.000,     0.000,     0.000,   1
    85,'1 ',1,   4,   1,    18.000,     0.000,     0.000,     0.000,     0.000,     0.000,   1
    86,'1 ',1,   4,   1,    50.000,    25.000,     0.000,     0.000,     0.000,     0.000,   1
    88,'1 ',1,   4,   1,   110.000,    55.000,     0.000,     0.000,     0.000,     0.000,   1
    89,'1 ',1,   4,   1,   100.000,    70.000,     0.000,     0.000,     0.000,     0.000,   1
    90,'1 ',1,   4,   1,   115.000,    45.000,     0.000,     0.000,     0.000,     0.000,   1
    91,'1 ',1,   4,   1,  1650.000,   500.000,     0.000,     0.000,     0.000,     0.000,   1
    92,'1 ',1,   4,   1,    10.000,   320.000,     0.000,     0.000,     0.000,     0.000,   1
    93,'1 ',1,   4,   1,   125.000,     0.000,     0.000,     0.000,     0.000,     0.000,   1
    94,'1 ',1,   4,   1,    95.000,     0.000,     0.000,     0.000,     0.000,     0.000,   1
    95,'1 ',1,   4,   1,    25.000,   100.000,     0.000,     0.000,     0.000,     0.000,   1
    95,'2 ',1,   4,   1,  -125.000,   -13.000,     0.000,     0.000,     0.000,     0.000,   1
    96,'1 ',1,   4,   1,    20.000,     0.000,     0.000,     0.000,     0.000,     0.000,   1
    96,'2 ',1,   4,   1,   -60.000,   -25.000,     0.000,     0.000,     0.000,     0.000,   1
    97,'1 ',1,   4,   1,   910.000,    50.000,     0.000,     0.000,     0.000,     0.000,   1
   101,'1 ',1,   4,   1,   350.000,   130.000,     0.000,     0.000,     0.000,     0.000,   1
   104,'1 ',1,   4,   1,   200.000,    90.000,     0.000,     0.000,     0.000,     0.000,   1
   105,'1 ',1,   4,   1,   325.000,     0.000,     0.000,     0.000,     0.000,     0.000,   1
   106,'1 ',1,   4,   1,     0.000,   -12.000,     0.000,     0.000,     0.000,     0.000,   1
   107,'1 ',1,   4,   1,     0.000,   -19.000,     0.000,     0.000,     0.000,     0.000,   1
   108,'1 ',1,   4,   1,     0.000,   -13.000,     0.000,     0.000,     0.000,     0.000,   1
   109,'1 ',1,   4,   1,     0.000,   -13.000,     0.000,     0.000,     0.000,     0.000,   1
   110,'1 ',1,   4,   1,   718.000,   125.000,     0.000,     0.000,     0.000,     0.000,   1
   111,'1 ',1,   4,   1,   399.000,    45.000,     0.000,     0.000,     0.000,     0.000,   1
   113,'1 ',1,   4,   1,   206.000,     0.000,     0.000,     0.000,     0.000,     0.000,   1
   114,'1 ',1,   5,   1,     0.000,    90.000,     0.000,     0.000,     0.000,     0.000,   1
   115,'1 ',1,   5,   1,   100.000,     0.000,     0.000,     0.000,     0.000,     0.000,   1
   116,'1 ',1,   5,   1,   200.000,     0.000,     0.000,     0.000,     0.000,     0.000,   1
   117,'1 ',1,   5,   1,   400.000,    97.000,     0.000,     0.000,     0.000,     0.000,   1
   118,'1 ',1,   5,   1,   280.000,    86.000,     0.000,     0.000,     0.000,     0.000,   1
   119,'1 ',1,   5,   1,   750.000,   200.000,     0.000,     0.000,     0.000,     0.000,   1
   120,'1 ',1,   5,   1,   946.000,   -40.000,     0.000,     0.000,     0.000,     0.000,   1
   123,'1 ',1,   5,   1,    63.000,    10.000,     0.000,     0.000,     0.000,     0.000,   1
   124,'1 ',1,   6,   1,   370.000,    71.000,     0.000,     0.000,     0.000,     0.000,   1
   124,'2 ',1,   6,   1,     0.000,   -22.000,     0.000,     0.000,     0.000,     0.000,   1
   125,'1 ',1,   6,   1,   320.000,     5.000,     0.000,     0.000,     0.000,     0.000,   1
   126,'1 ',1,   6,   1,   450.000,     0.000,     0.000,     0.000,     0.000,     0.000,   1
   127,'1 ',1,   6,   1,   200.000,     0.000,     0.000,     0.000,     0.000,     0.000,   1
   127,'2 ',1,   6,   1,     0.000,  -150.000,     0.000,     0.000,     0.000,     0.000,   1
   128,'1 ',1,   6,   1,   970.000,    60.000,     0.000,     0.000,     0.000,     0.000,   1
   128,'2 ',1,   6,   1,     0.000,  -162.000,     0.000,     0.000,     0.000,     0.000,   1
   129,'1 ',1,   6,   1,   610.000,     0.000,     0.000,     0.000,     0.000,     0.000,   1
   129,'2 ',1,   6,   1,     0.000,   -50.000,     0.000,     0.000,     0.000,     0.000,   1
   130,'1 ',1,   6,   1,   180.000,     0.000,     0.000,     0.000,     0.000,     0.000,   1
   131,'1 ',1,   6,   1,  1160.000,   468.000,     0.000,     0.000,     0.000,     0.000,   1
   131,'2 ',1,   6,   1,     0.000,  -900.000,     0.000,     0.000,     0.000,     0.000,   1
   132,'1 ',1,   6,   1,   210.000,     0.000,     0.000,     0.000,     0.000,     0.000,   1
   132,'2 ',1,   6,   1,     0.000,  -337.000,     0.000,     0.000,     0.000,     0.000,   1
   135,'1 ',1,   6,   1,   170.000,     0.000,     0.000,     0.000,     0.000,     0.000,   1
   136,'1 ',1,   6,   1,   270.000,   223.000,     0.000,     0.000,     0.000,     0.000,   1
   138,'1 ',1,   6,   1,   110.000,    64.000,     0.000,     0.000,     0.000,     0.000,   1
0 / END OF LOAD DATA, BEGIN FIXED SHUNT DATA
    41,'1 ',1,     0.000,    25.000
    45,'1 ',1,     0.000,    25.000
    47,'1 ',1,     0.000,    60.000
    49,'1 ',1,     0.000,    30.000
    51,'1 ',1,     0.000,    25.000
    55,'1 ',1,     0.000,     2.000
    56,'1 ',1,     0.000,     6.000
    58,'1 ',1,     0.000,     2.000
    59,'1 ',1,     0.000,    50.000
    61,'1 ',1,     0.000,     4.000
0 / END OF FIXED SHUNT DATA, BEGIN GENERATOR DATA
    21,'1 ',   650.000,   217.719,   999.000,  -999.000,0.98000,     0,   100.000, 0.00000E+0, 2.90000E-2, 0.00000E+0, 0.00000E+0,1.00000,1,  100.0,  9999.000, -9999.000,   1,1.0000
    22,'1 ',   632.000,   110.328,   999.000,  -999.000,0.99000,     0,   100.000, 0.00000E+0, 2.95000E-2, 0.00000E+0, 0.00000E+0,1.00000,1,  100.0,  9999.000, -9999.000,   1,1.0000
    23,'1 ',   276.650,    94.699,   999.000,  -999.000,1.00660,     0,   100.000, 0.00000E+0, 3.33000E-2, 0.00000E+0, 0.00000E+0,1.00000,1,  100.0,  9999.000, -9999.000,   1,1.0000
    23,'2 ',   226.350,    77.481,  9999.000, -9999.000,1.00660,     0,   100.000, 0.00000E+0, 7.45000E-2, 0.00000E+0, 0.00000E+0,1.00000,1,  100.0,  9999.000, -9999.000,   1,1.0000
    24,'1 ',   700.000,   251.194,   999.000,  -999.000,1.05000,     0,   100.000, 0.00000E+0, 2.90000E-2, 0.00000E+0, 0.00000E+0,1.00000,1,  100.0,  9999.000, -9999.000,   1,1.0000
    25,'1 ',   560.000,   106.429,   999.000,  -999.000,1.06000,     0,   100.000, 0.00000E+0, 3.22000E-2, 0.00000E+0, 0.00000E+0,1.00000,1,  100.0,  9999.000, -9999.000,   1,1.0000
    26,'1 ',   800.000,    31.883,   999.000,  -999.000,1.02000,     0,  1000.000, 0.00000E+0, 3.13000E-1, 0.00000E+0, 0.00000E+0,1.00000,1,  100.0,  9999.000, -9999.000,   1,1.0000
    27,'1 ',   540.000,    44.977,   999.000,  -999.000,1.02000,     0,   100.000, 0.00000E+0, 3.00000E-2, 0.00000E+0, 0.00000E+0,1.00000,1,  100.0,  9999.000, -9999.000,   1,1.0000
    36,'1 ',   554.000,   216.724,   999.000,  -999.000,0.98000,     0,   100.000, 0.00000E+0, 4.60000E-2, 0.00000E+0, 0.00000E+0,1.00000,1,  100.0,  9999.000, -9999.000,   1,1.0000
    42,'1 ',   370.000,    37.755,   999.000,  -999.000,1.04000,     0,   100.000, 0.00000E+0, 4.45000E-2, 0.00000E+0, 0.00000E+0,1.00000,1,  100.0,  9999.000, -9999.000,   1,1.0000
    47,'1 ',   400.000,    -3.853,   999.000,  -999.000,1.03000,     0,   100.000, 0.00000E+0, 7.82000E-2, 0.00000E+0, 0.00000E+0,1.00000,1,  100.0,  9999.000, -9999.000,   1,1.0000
    48,'1 ',   400.000,   156.478,   999.000,  -999.000,1.05000,     0,   100.000, 0.00000E+0, 7.82000E-2, 0.00000E+0, 0.00000E+0,1.00000,1,  100.0,  9999.000, -9999.000,   1,1.0000
    50,'1 ',   600.000,    91.140,   999.000,  -999.000,1.05000,     0,   100.000, 0.00000E+0, 5.90000E-2, 0.00000E+0, 0.00000E+0,1.00000,1,  100.0,  9999.000, -9999.000,   1,1.0000
    51,'1 ',   141.000,    21.426,   999.000,  -999.000,1.04000,     0,   100.000, 0.00000E+0, 4.13000E-2, 0.00000E+0, 0.00000E+0,1.00000,1,  100.0,  9999.000, -9999.000,   1,1.0000
    53,'1 ',   833.000,   177.976,   999.000,  -999.000,1.03000,     0,   100.000, 0.00000E+0, 2.00000E-2, 0.00000E+0, 0.00000E+0,1.00000,1,  100.0,  9999.000, -9999.000,   1,1.0000
    54,'1 ',   557.500,   140.408,   999.000,  -999.000,1.04080,     0,   100.000, 0.00000E+0, 5.00000E-2, 0.00000E+0, 0.00000E+0,1.00000,1,  100.0,  9999.000, -9999.000,   1,1.0000
    54,'2 ',   557.500,   140.408,  9999.000, -9999.000,1.04080,     0,   100.000, 0.00000E+0, 5.00000E-2, 0.00000E+0, 0.00000E+0,1.00000,1,  100.0,  9999.000, -9999.000,   1,1.0000
    55,'1 ',  1095.000,   198.095,   999.000,  -999.000,1.04000,     0,   100.000, 0.00000E+0, 3.02000E-2, 0.00000E+0, 0.00000E+0,1.00000,1,  100.0,  9999.000, -9999.000,   1,1.0000
    56,'1 ',   410.000,   163.577,   999.000,  -999.000,1.03000,     0,   100.000, 0.00000E+0, 5.15000E-2, 0.00000E+0, 0.00000E+0,1.00000,1,  100.0,  9999.000, -9999.000,   1,1.0000
    57,'1 ',   298.000,   -51.373,   999.000,  -999.000,1.03000,     0,   100.000, 0.00000E+0, 4.64000E-2, 0.00000E+0, 0.00000E+0,1.00000,1,  100.0,  9999.000, -9999.000,   1,1.0000
    60,'1 ',   410.000,    96.042,   999.000,  -999.000,1.04000,     0,   100.000, 0.00000E+0, 5.23000E-2, 0.00000E+0, 0.00000E+0,1.00000,1,  100.0,  9999.000, -9999.000,   1,1.0000
    61,'1 ',   194.000,   -21.496,   999.000,  -999.000,1.04000,     0,   100.000, 0.00000E+0, 9.47000E-2, 0.00000E+0, 0.00000E+0,1.00000,1,  100.0,  9999.000, -9999.000,   1,1.0000
    65,'1 ',    91.000,    53.806,   999.000,  -999.000,1.04000,     0,   100.000, 0.00000E+0, 2.00000E-2, 0.00000E+0, 0.00000E+0,1.00000,1,  100.0,  9999.000, -9999.000,   1,1.0000
    68,'1 ',    66.000,     2.140,   999.000,  -999.000,0.99000,     0,   100.000, 0.00000E+0, 2.00000E-2, 0.00000E+0, 0.00000E+0,1.00000,1,  100.0,  9999.000, -9999.000,   1,1.0000
    71,'1 ',   134.000,  -366.668,   999.000,  -999.000,1.00000,     0,   100.000, 0.00000E+0, 2.00000E-2, 0.00000E+0, 0.00000E+0,1.00000,1,  100.0,  9999.000, -9999.000,   1,1.0000
    72,'1 ',   150.000,   378.639,   999.000,  -999.000,1.05000,     0,   100.000, 0.00000E+0, 2.00000E-2, 0.00000E+0, 0.00000E+0,1.00000,1,  100.0,  9999.000, -9999.000,   1,1.0000
    78,'1 ',   461.381,    90.819,   999.000,  -999.000,1.02000,     0,   100.000, 0.00000E+0, 2.00000E-2, 0.00000E+0, 0.00000E+0,1.00000,1,  100.0,  9999.000, -9999.000,   1,1.0000
    79,'1 ',  1000.000,   257.345,   999.000,  -999.000,1.05000,     0,   100.000, 0.00000E+0, 2.80000E-2, 0.00000E+0, 0.00000E+0,1.00000,1,  100.0,  9999.000, -9999.000,   1,1.0000
    80,'1 ',   720.000,    -0.078,   999.000,  -999.000,1.02320,     0,   100.000, 0.00000E+0, 2.50000E-2, 0.00000E+0, 0.00000E+0,1.00000,1,  100.0,  9999.000, -9999.000,   1,1.0000
    82,'1 ',   460.000,   125.095,   999.000,  -999.000,1.05000,     0,   100.000, 0.00000E+0, 5.00000E-2, 0.00000E+0, 0.00000E+0,1.00000,1,  100.0,  9999.000, -9999.000,   1,1.0000
    86,'1 ',  1650.000,   578.375,   999.000,  -999.000,1.00000,     0,   100.000, 0.00000E+0, 1.00000E-2, 0.00000E+0, 0.00000E+0,1.00000,1,  100.0,  9999.000, -9999.000,   1,1.0000
    91,'1 ',   930.000,  1000.384,  9999.000, -9999.000,1.04000,     0,   100.000, 0.00000E+0, 2.00000E-2, 0.00000E+0, 0.00000E+0,1.00000,1,  100.0,  9999.000, -9999.000,   1,1.0000
    92,'1 ',   450.000,   324.474,   999.000,  -999.000,1.04000,     0,   100.000, 0.00000E+0, 2.00000E-2, 0.00000E+0, 0.00000E+0,1.00000,1,  100.0,  9999.000, -9999.000,   1,1.0000
    97,'1 ',   600.000,    93.190,   999.000,  -999.000,1.04000,     0,   100.000, 0.00000E+0, 2.00000E-2, 0.00000E+0, 0.00000E+0,1.00000,1,  100.0,  9999.000, -9999.000,   1,1.0000
    98,'1 ',   585.000,    18.693,   999.000,  -999.000,1.04000,     0,   100.000, 0.00000E+0, 1.50000E-2, 0.00000E+0, 0.00000E+0,1.00000,1,  100.0,  9999.000, -9999.000,   1,1.0000
   101,'1 ',  1200.000,   164.575,   999.000,  -999.000,1.05000,     0,   100.000, 0.00000E+0, 1.70000E-2, 0.00000E+0, 0.00000E+0,1.00000,1,  100.0,  9999.000, -9999.000,   1,1.0000
   115,'1 ',   550.000,   172.137,   999.000,  -999.000,1.02000,     0,   100.000, 0.00000E+0, 2.00000E-2, 0.00000E+0, 0.00000E+0,1.00000,1,  100.0,  9999.000, -9999.000,   1,1.0000
   119,'1 ',   550.000,   122.815,   999.000,  -999.000,1.00000,     0,   100.000, 0.00000E+0, 2.00000E-2, 0.00000E+0, 0.00000E+0,1.00000,1,  100.0,  9999.000, -9999.000,   1,1.0000
   120,'1 ',   700.000,    51.063,   999.000,  -999.000,1.02000,     0,   100.000, 0.00000E+0, 2.00000E-2, 0.00000E+0, 0.00000E+0,1.00000,1,  100.0,  9999.000, -9999.000,   1,1.0000
   121,'1 ',   145.000,    93.300,   999.000,  -999.000,1.04000,     0,   100.000, 0.00000E+0, 2.00000E-2, 0.00000E+0, 0.00000E+0,1.00000,1,  100.0,  9999.000, -9999.000,   1,1.0000
   122,'1 ',   155.000,   113.859,   999.000,  -999.000,1.05000,     0,   100.000, 0.00000E+0, 2.00000E-2, 0.00000E+0, 0.00000E+0,1.00000,1,  100.0,  9999.000, -9999.000,   1,1.0000
   123,'1 ',   655.000,    48.716,   999.000,  -999.000,1.01000,     0,   100.000, 0.00000E+0, 2.00000E-2, 0.00000E+0, 0.00000E+0,1.00000,1,  100.0,  9999.000, -9999.000,   1,1.0000
   130,'1 ',   490.000,  -453.975,   999.000,  -999.000,1.02000,     0,   100.000, 0.00000E+0, 2.00000E-2, 0.00000E+0, 0.00000E+0,1.00000,1,  100.0,  9999.000, -9999.000,   1,1.0000
   133,'1 ',  1700.000,  -139.709,   999.000,  -999.000,1.02000,     0,   100.000, 0.00000E+0, 2.00000E-2, 0.00000E+0, 0.00000E+0,1.00000,1,  100.0,  9999.000, -9999.000,   1,1.0000
   134,'1 ',   880.000,    47.561,   999.000,  -999.000,1.03000,     0,   100.000, 0.00000E+0, 2.00000E-2, 0.00000E+0, 0.00000E+0,1.00000,1,  100.0,  9999.000, -9999.000,   1,1.0000
   135,'1 ',  2330.000,   -99.909,   999.000,  -999.000,1.02000,     0,   100.000, 0.00000E+0, 2.00000E-2, 0.00000E+0, 0.00000E+0,1.00000,1,  100.0,  9999.000, -9999.000,   1,1.0000
   137,'1 ',    70.000,   174.719,   999.000,  -999.000,1.04000,     0,   100.000, 0.00000E+0, 2.00000E-2, 0.00000E+0, 0.00000E+0,1.00000,1,  100.0,  9999.000, -9999.000,   1,1.0000
   139,'1 ',   115.000,    18.488,   999.000,  -999.000,1.01000,     0,   100.000, 0.00000E+0, 2.00000E-2, 0.00000E+0, 0.00000E+0,1.00000,1,  100.0,  9999.000, -9999.000,   1,1.0000
0 / END OF GENERATOR DATA, BEGIN BRANCH DATA
     1,     2,'1 ', 4.00000E-4, 4.30000E-3,   0.07000,    0.00,    0.00,    0.00,  0.00000,  0.00000,  0.00000,  0.00000,1,2,   0.00,   1,1.0000
     1,     4,'1 ', 4.00000E-4, 4.30000E-3,   0.07000,    0.00,    0.00,    0.00,  0.00000,  0.00000,  0.00000,  0.00000,1,2,   0.00,   1,1.0000
     2,    33,'1 ', 7.00000E-4, 8.20000E-3,   0.14000,    0.00,    0.00,    0.00,  0.00000,  0.00000,  0.00000,  0.00000,1,1,   0.00,   1,1.0000
     4,     5,'1 ', 9.00000E-4, 1.01000E-2,   0.17000,    0.00,    0.00,    0.00,  0.00000,  0.00000,  0.00000,  0.00000,1,2,   0.00,   1,1.0000
     5,     6,'1 ', 1.80000E-3, 2.17000E-2,   0.37000,    0.00,    0.00,    0.00,  0.00000,  0.00000,  0.00000,  0.00000,1,2,   0.00,   1,1.0000
     5,    31,'1 ', 8.00000E-4, 1.29000E-2,   0.14000,    0.00,    0.00,    0.00,  0.00000,  0.00000,  0.00000,  0.00000,1,1,   0.00,   1,1.0000
     6,     7,'1 ', 9.00000E-4, 9.40000E-3,   0.17000,    0.00,    0.00,    0.00,  0.00000,  0.00000,  0.00000,  0.00000,1,2,   0.00,   1,1.0000
     7,     8,'1 ', 7.00000E-4, 8.90000E-3,   0.13000,    0.00,    0.00,    0.00,  0.00000,  0.00000,  0.00000,  0.00000,1,2,   0.00,   1,1.0000
     7,    10,'1 ', 1.60000E-3, 1.95000E-2,   0.30000,    0.00,    0.00,    0.00,  0.00000,  0.00000,  0.00000,  0.00000,1,2,   0.00,   1,1.0000
     7,    12,'1 ', 8.00000E-4, 1.35000E-2,   0.25000,    0.00,    0.00,    0.00,  0.00000,  0.00000,  0.00000,  0.00000,1,2,   0.00,   1,1.0000
     7,    15,'1 ', 3.00000E-4, 5.90000E-3,   0.07000,    0.00,    0.00,    0.00,  0.00000,  0.00000,  0.00000,  0.00000,1,2,   0.00,   1,1.0000
     8,     9,'1 ', 7.00000E-4, 8.20000E-3,   0.13000,    0.00,    0.00,    0.00,  0.00000,  0.00000,  0.00000,  0.00000,1,2,   0.00,   1,1.0000
     8,    18,'1 ', 1.30000E-3, 1.73000E-2,   0.32000,    0.00,    0.00,    0.00,  0.00000,  0.00000,  0.00000,  0.00000,1,2,   0.00,   1,1.0000
     9,    30,'1 ', 1.10000E-3, 1.33000E-2,   0.21000,    0.00,    0.00,    0.00,  0.00000,  0.00000,  0.00000,  0.00000,1,1,   0.00,   1,1.0000