0,   100.00, 31, 0, 1, 50.00     / PSS(R)E-31.0    MON, MAY 22 2017  21:05
2010年华中华北联网冬1217(正式发布)  CASE NO. 214 ,CONVERTED
BY APSAL, SHANDONG UNIVERSITY, ON 2010-03-22 07:57:04 PM
127100,'冀辛安51    ', 525.0000,3,   2,   2,   1,1.00000,   0.0000
129133,'冀黄骅51    ', 525.0000,2,   2,   2,   1,1.00000,  -8.4505
151801,'鲁安东站10.5',  10.5000,1,   7,  18,   1,0.93610, -13.0430
151802,'鲁安东站220 ', 230.0000,1,   7,  18,   1,0.94842,  -7.6449
151803,'鲁安东站2号 ',   1.0000,1,   7,  18,   1,0.91842, -13.0247
151804,'鲁安东站3号 ',   1.0000,1,   7,  18,   1,0.91838, -13.0385
151805,'鲁安丘站1号 ',   1.0000,1,   7,  18,   1,0.95061, -22.0778
151806,'鲁安丘站220 ', 230.0000,1,   7,  18,   1,0.96852, -17.7932
151807,'鲁安丘站2号 ',   1.0000,1,   7,  18,   1,0.95069, -22.0638
151808,'鲁安丘站35  ',  38.5000,1,   7,  18,   1,0.96090, -22.0861
151809,'鲁八角厂1号 ',  20.0000,2,   7,  18,   1,0.89545, -35.6210
151810,'鲁八角厂220 ', 230.0000,1,   7,  18,   1,0.89545, -35.6210
151812,'鲁八里站1号 ',   1.0000,1,   7,  18,   1,0.92709,  -8.0133
151813,'鲁八里站220 ', 230.0000,1,   7,  18,   1,0.95285,  -3.2277
151814,'鲁八里站2号 ',   1.0000,1,   7,  18,   1,0.92739,  -8.0747
151815,'鲁八里站35  ',  38.5000,1,   7,  18,   1,0.93312,  -8.0519
151816,'鲁白杨河厂02',   6.3000,1,   7,  18,   1,0.90249, -21.5665
151818,'鲁白杨河厂4 ',  13.8000,2,   7,  18,   1,0.91806, -19.1395
151819,'鲁白杨河厂4 ',   1.0000,1,   7,  18,   1,0.91806, -19.1395
151820,'鲁白杨河厂5 ',  13.8000,2,   7,  18,   1,0.91815, -19.1260
151821,'鲁白杨河厂5 ',   1.0000,1,   7,  18,   1,0.91815, -19.1260
151822,'鲁白杨河厂6 ',  20.0000,2,   7,  18,   1,1.00000,  -4.4692
151823,'鲁白杨河厂7 ',  20.0000,2,   7,  18,   1,0.93196, -16.3850
151825,'鲁白杨河甲22', 230.0000,1,   7,  18,   1,0.94479, -15.6284
151830,'鲁白杨河乙22', 230.0000,1,   7,  18,   1,0.94413, -15.6898
151833,'鲁白庄站1号 ',   1.0000,1,   7,  18,   1,0.92479, -13.8112
151834,'鲁白庄站220 ', 230.0000,1,   7,  18,   1,0.94489, -10.6589
151835,'鲁白庄站2号 ',   1.0000,1,   7,  18,   1,0.92489, -13.8054
151836,'鲁白庄站35  ',  38.5000,1,   7,  18,   1,0.92795, -13.8133
151837,'鲁百脉站1号 ',   1.0000,1,   7,  18,   1,0.93246, -21.3639
151838,'鲁百脉站220 ', 230.0000,1,   7,  18,   1,0.95687, -16.5502
151839,'鲁百脉站2号 ',   1.0000,1,   7,  18,   1,0.93244, -21.3682
151840,'鲁百脉站35  ',  38.5000,1,   7,  18,   1,0.93954, -21.3721
151841,'鲁宝都站1号 ',   1.0000,1,   7,  18,   1,0.94682, -24.7225
151842,'鲁宝都站220 ', 230.0000,1,   7,  18,   1,0.96162, -20.8926
151843,'鲁宝都站2号 ',   1.0000,1,   7,  18,   1,0.94520, -24.8215
151844,'鲁宝都站35  ',  38.5000,1,   7,  18,   1,0.95506, -24.7769
151845,'鲁宝泉站1号 ',   1.0000,1,   7,  18,   1,0.91432, -20.9072
151846,'鲁宝泉站220 ', 230.0000,1,   7,  18,   1,0.93721, -14.4080
151847,'鲁宝泉站2号 ',   1.0000,1,   7,  18,   1,0.91442, -20.8986
151848,'鲁宝泉站35  ',  38.5000,1,   7,  18,   1,0.92654, -20.9221
151849,'鲁北海站1号 ',   1.0000,1,   7,  18,   1,0.94366, -25.1635
151850,'鲁北海站220 ', 230.0000,1,   7,  18,   1,0.97044, -21.6121
151851,'鲁北海站35  ',  38.5000,1,   7,  18,   1,0.94366, -25.1635
151852,'鲁北马站1号 ',   1.0000,1,   7,  18,   1,0.89959, -35.2672
151853,'鲁北马站220 ', 230.0000,1,   7,  18,   1,0.91208, -33.2137
151854,'鲁北马站2号 ',   1.0000,1,   7,  18,   1,0.89959, -35.2672
151855,'鲁北马站35  ',  38.5000,1,   7,  18,   1,0.89959, -35.2672
151860,'鲁滨湖站220 ', 230.0000,1,   7,  18,   1,0.96937,  -3.3231
151861,'鲁滨湖站35  ',  38.5000,1,   7,  18,   1,0.96057,  -4.5044
151862,'鲁滨湖站3号 ',   1.0000,1,   7,  18,   1,0.96057,  -4.5044
151864,'鲁滨州站220 ', 230.0000,1,   7,  18,   1,0.98716, -17.8371
151866,'鲁滨州站353 ',  38.5000,1,   7,  18,   1,1.02177, -18.1691
151867,'鲁滨州站3号 ',   1.0000,1,   7,  18,   1,0.98617, -18.1413
151874,'鲁博山站1号 ',   1.0000,1,   7,  18,   1,0.91950, -20.8065
151875,'鲁博山站220 ', 230.0000,1,   7,  18,   1,0.94718, -15.7643
151876,'鲁博山站2号 ',   1.0000,1,   7,  18,   1,0.91954, -20.8073
151877,'鲁彩虹站10.5',  11.0000,1,   7,  18,   1,0.93593, -20.3623
151878,'鲁彩虹站1号 ',   1.0000,1,   7,  18,   1,0.93593, -20.3623
151879,'鲁彩虹站220 ', 230.0000,1,   7,  18,   1,0.94911, -18.4315
151880,'鲁蚕庄站1号 ',   1.0000,1,   7,  18,   1,0.89800, -37.1822
151881,'鲁蚕庄站220 ', 230.0000,1,   7,  18,   1,0.91342, -32.9062
151882,'鲁蚕庄站2号 ',   1.0000,1,   7,  18,   1,0.89826, -37.1861
151883,'鲁蚕庄站35  ',  38.5000,1,   7,  18,   1,0.90570, -37.1948
151884,'鲁苍山站1号 ',   1.0000,1,   7,  18,   1,0.93606, -18.8427
151885,'鲁苍山站220 ', 230.0000,1,   7,  18,   1,0.93163, -15.7609
151886,'鲁苍山站2号 ',   1.0000,1,   7,  18,   1,0.93575, -18.8976
151887,'鲁苍山站35  ',  38.5000,1,   7,  18,   1,0.95167, -18.8962
151888,'鲁曹城站1号 ',   1.0000,1,   7,  18,   1,0.92264, -17.1953
151889,'鲁曹城站220 ', 230.0000,1,   7,  18,   1,0.93497, -13.0214
151890,'鲁曹城站2号 ',   1.0000,1,   7,  18,   1,0.92323, -17.2664
151891,'鲁曹城站35  ',  38.5000,1,   7,  18,   1,0.93228, -17.2486
151892,'鲁昌邑站1号 ',   1.0000,1,   7,  18,   1,0.92248, -25.2484
151893,'鲁昌邑站220 ', 230.0000,1,   7,  18,   1,0.95561, -18.9619
151894,'鲁昌邑站2号 ',   1.0000,1,   7,  18,   1,0.92351, -25.1240
151895,'鲁昌邑站35  ',  38.5000,1,   7,  18,   1,0.93337, -25.2133
151896,'鲁长清站220 ', 230.0000,1,   7,  18,   1,0.96285, -13.9504
151897,'鲁长清站2号 ',   1.0000,1,   7,  18,   1,0.96136, -14.3031
151898,'鲁长清站352 ',  38.5000,1,   7,  18,   1,0.99397, -14.3238
151899,'鲁长清站353 ',  38.5000,1,   7,  18,   1,0.99571, -14.2503
151900,'鲁长清站3号 ',   1.0000,1,   7,  18,   1,0.96113, -14.2423
151906,'鲁长清站500 ', 525.0000,1,   7,  18,   1,0.97264, -10.2190
151907,'鲁长勺站11  ',  11.0000,1,   7,  18,   1,0.93810, -15.7449
151908,'鲁长勺站1号 ',   1.0000,1,   7,  18,   1,0.93829, -15.7218
151909,'鲁长勺站220 ', 230.0000,1,   7,  18,   1,0.95656, -13.3022
151910,'鲁长勺站2号 ',   1.0000,1,   7,  18,   1,0.93794, -15.7642
151911,'鲁常林站1号 ',   1.0000,1,   7,  18,   1,0.92078, -19.2563
151912,'鲁常林站220 ', 230.0000,1,   7,  18,   1,0.94271, -13.5415
151913,'鲁常林站35  ',  38.5000,1,   7,  18,   1,0.93535, -19.2830
151914,'鲁车道站1号 ',   1.0000,1,   7,  18,   1,0.90252, -34.1844
151915,'鲁车道站220 ', 230.0000,1,   7,  18,   1,0.92199, -30.1748
151916,'鲁车道站2号 ',   1.0000,1,   7,  18,   1,0.90188, -34.2431
151917,'鲁车道站35  ',  38.5000,1,   7,  18,   1,0.91006, -34.2297
151918,'鲁车王站1号 ',   1.0000,1,   7,  18,   1,0.96362, -21.3739
151919,'鲁车王站220 ', 230.0000,1,   7,  18,   1,0.97984, -18.9726
151920,'鲁车王站2号 ',   1.0000,1,   7,  18,   1,0.96380, -21.3863
151921,'鲁车王站35  ',  38.5000,1,   7,  18,   1,0.96675, -21.3807
151922,'鲁晨鸣3号中 ',   1.0000,1,   7,  18,   1,0.92735, -27.1445
151923,'鲁晨鸣热电11', 115.0000,1,   7,  18,   1,0.91286, -30.5049
151924,'鲁晨鸣热电22', 230.0000,1,   7,  18,   1,0.95598, -22.1161
151925,'鲁晨鸣热电3 ',  15.7500,2,   7,  18,   1,0.92735, -27.1445
151926,'鲁茌平厂01号',   1.0000,1,   7,  18,   1,0.91647, -12.7308
151927,'鲁茌平厂02号',   1.0000,1,   7,  18,   1,0.91647, -12.7308
151928,'鲁茌平厂110 ', 115.0000,1,   7,  18,   1,0.90341, -14.0912
151929,'鲁茌平厂220 ', 230.0000,1,   7,  18,   1,0.93000, -11.4113
151930,'鲁茌平厂35  ',  38.5000,1,   7,  18,   1,0.94955,  -8.6746
151931,'鲁茌平厂6.3 ',   6.3000,1,   7,  18,   1,0.91647, -12.7308
151932,'鲁茌平厂6号 ',  13.8000,2,   7,  18,   1,0.90341, -14.0912
151933,'鲁茌平厂7号 ',  13.8000,2,   7,  18,   1,0.94626,  -9.0153
151934,'鲁茌平厂7号 ',   1.0000,1,   7,  18,   1,0.94955,  -8.6746
151935,'鲁茌平厂8号 ',  13.8000,2,   7,  18,   1,0.91834, -12.1521
151936,'鲁茌平厂9号 ',  13.8000,2,   7,  18,   1,0.93000, -11.4113
151937,'鲁冲山站1号 ',   1.0000,1,   7,  18,   1,0.93493, -20.7164
151938,'鲁冲山站220 ', 230.0000,1,   7,  18,   1,0.95234, -15.5646
151939,'鲁冲山站35  ',  38.5000,1,   7,  18,   1,0.94699, -20.7505
151940,'鲁崇义站1号 ',   1.0000,1,   7,  18,   1,0.88083, -39.9508
151941,'鲁崇义站220 ', 230.0000,1,   7,  18,   1,0.88847, -37.1241
151942,'鲁崇义站2号 ',   1.0000,1,   7,  18,   1,0.88094, -39.9395
151943,'鲁崇义站35  ',  38.5000,1,   7,  18,   1,0.88554, -39.9530
151945,'鲁大安站1号 ',   1.0000,1,   7,  18,   1,0.95090,  -6.2885
151946,'鲁大安站220 ', 230.0000,1,   7,  18,   1,0.95949,  -3.7614
151947,'鲁大安站35  ',  38.5000,1,   7,  18,   1,0.95691,  -6.2960
151955,'鲁大兴站1号 ',   1.0000,1,   7,  18,   1,0.91578, -27.0562
151956,'鲁大兴站220 ', 230.0000,1,   7,  18,   1,0.94459, -20.1406
151958,'鲁大兴站35  ',  38.5000,1,   7,  18,   1,0.93033, -27.0811
151959,'鲁大杨站1号 ',   1.0000,1,   7,  18,   1,0.96879, -19.1376
151960,'鲁大杨站220 ', 230.0000,1,   7,  18,   1,0.98071, -16.5130
151961,'鲁大杨站35  ',  38.5000,1,   7,  18,   1,0.97484, -19.1350
151963,'鲁大泽站220 ', 230.0000,1,   7,  18,   1,0.97177, -21.2153
151964,'鲁大泽站2号 ',   1.0000,1,   7,  18,   1,0.96979, -21.5801
151966,'鲁大泽站352 ',  38.5000,1,   7,  18,   1,1.00916, -21.6047
151973,'鲁大泽站500 ', 525.0000,1,   7,  18,   1,0.97020, -18.9215
151974,'鲁大正站10.5',  10.5000,1,   7,  18,   1,0.92792, -24.8620
151976,'鲁大正站220 ', 230.0000,1,   7,  18,   1,0.95218, -17.7080
151977,'鲁大正站2号 ',   1.0000,1,   7,  18,   1,0.91022, -24.8527
151978,'鲁大庄站1号 ',   1.0000,1,   7,  18,   1,0.93673, -18.5029
151979,'鲁大庄站220 ', 230.0000,1,   7,  18,   1,0.96054, -14.6170
151980,'鲁大庄站2号 ',   1.0000,1,   7,  18,   1,0.93687, -18.4917
151981,'鲁大庄站35  ',  38.5000,1,   7,  18,   1,0.93950, -18.4937
151982,'鲁大庄站3号 ',   1.0000,1,   7,  18,   1,0.93684, -18.4773
151983,'鲁单城站1号 ',   1.0000,1,   7,  18,   1,0.91704, -17.9694
151984,'鲁单城站220 ', 230.0000,1,   7,  18,   1,0.92844, -13.5323
151985,'鲁单城站2号 ',   1.0000,1,   7,  18,   1,0.91628, -18.0442
151986,'鲁单城站35  ',  38.5000,1,   7,  18,   1,0.92504, -18.0191
151987,'鲁党家庄站10',  10.5000,1,   7,  18,   1,0.92977, -21.7270
151989,'鲁党家庄站1 ',   1.0000,1,   7,  18,   1,0.91296, -21.7073
151990,'鲁党家庄站22', 230.0000,1,   7,  18,   1,0.94020, -16.7362
151991,'鲁党家庄站2 ',   1.0000,1,   7,  18,   1,0.91295, -21.7066
151992,'鲁德州站220 ', 230.0000,1,   7,  18,   1,0.96772, -17.6411
151993,'鲁德州站2号 ',   1.0000,1,   7,  18,   1,0.96503, -18.2477
151994,'鲁德州站352 ',  38.5000,1,   7,  18,   1,0.99812, -18.2741
151995,'鲁德州站353 ',  38.5000,1,   7,  18,   1,0.96736, -18.2477
151996,'鲁德州站3号 ',   1.0000,1,   7,  18,   1,0.96736, -18.2477
152001,'鲁德州站500 ', 525.0000,1,   7,  18,   1,0.97535, -13.5683
152002,'鲁丁庄站1号 ',   1.0000,1,   7,  18,   1,0.97499, -23.7565
152003,'鲁丁庄站220 ', 230.0000,1,   7,  18,   1,0.98018, -23.0250
152004,'鲁丁庄站2号 ',   1.0000,1,   7,  18,   1,0.97499, -23.7565
152005,'鲁丁庄站35  ',  38.5000,1,   7,  18,   1,0.97499, -23.7565
152006,'鲁东城站10.5',  11.0000,1,   7,  18,   1,0.94943, -28.7964
152007,'鲁东城站1号 ',   1.0000,1,   7,  18,   1,0.94246, -28.6886
152008,'鲁东城站220 ', 230.0000,1,   7,  18,   1,0.97118, -23.9951
152009,'鲁东城站2号 ',   1.0000,1,   7,  18,   1,0.94227, -28.8867
152010,'鲁东港站11  ',  11.0000,1,   7,  18,   1,0.93672, -10.1374
152011,'鲁东港站1号 ',   1.0000,1,   7,  18,   1,0.93676, -10.1234
152012,'鲁东港站220 ', 230.0000,1,   7,  18,   1,0.95762,  -7.1450
152013,'鲁东港站2号 ',   1.0000,1,   7,  18,   1,0.93667, -10.1519
152014,'鲁东海厂01号',   6.3000,1,   7,  18,   1,0.87021, -37.7891
152015,'鲁东海厂02号',   6.3000,1,   7,  18,   1,0.87021, -37.7891
152016,'鲁东海厂02中',   6.3000,1,   7,  18,   1,0.87021, -37.7891
152017,'鲁东海厂1号 ',  13.8000,2,   7,  18,   1,0.87021, -37.7891
152018,'鲁东海厂220 ', 230.0000,1,   7,  18,   1,0.87021, -37.7891
152019,'鲁东海厂2号 ',  13.8000,2,   7,  18,   1,0.86330, -38.2769
152020,'鲁东海厂3号 ',  18.0000,2,   7,  18,   1,0.90831, -30.2001
152021,'鲁东海厂4号 ',  18.0000,2,   7,  18,   1,0.90831, -30.2001
152022,'鲁东海厂6.3 ',   6.3000,1,   7,  18,   1,0.87021, -37.7891
152023,'鲁东江站1号 ',   1.0000,1,   7,  18,   1,0.86026, -45.8466
152024,'鲁东江站220 ', 230.0000,1,   7,  18,   1,0.87571, -37.7159
152025,'鲁东江站2号 ',   1.0000,1,   7,  18,   1,0.85987, -45.9519
152026,'鲁东江站35  ',  38.5000,1,   7,  18,   1,0.87547, -45.9281
152027,'鲁东门站10.5',  10.5000,1,   7,  18,   1,0.95502, -22.3383
152028,'鲁东门站1号 ',   1.0000,1,   7,  18,   1,0.92966, -22.3908
152029,'鲁东门站220 ', 230.0000,1,   7,  18,   1,0.94797, -18.6930
152030,'鲁东门站2号 ',   1.0000,1,   7,  18,   1,0.92990, -22.2427
152032,'鲁东明站220 ', 230.0000,1,   7,  18,   1,0.95259, -10.5277
152033,'鲁东明站2号 ',   1.0000,1,   7,  18,   1,0.93565, -13.7131
152034,'鲁东明站35  ',  38.5000,1,   7,  18,   1,0.93969, -13.7180
152035,'鲁东明站3号 ',   1.0000,1,   7,  18,   1,0.93555, -13.7105
152037,'鲁董家站1号 ',   1.0000,1,   7,  18,   1,0.95480, -15.5816
152038,'鲁董家站220 ', 230.0000,1,   7,  18,   1,0.96258, -14.4738
152039,'鲁董家站2号 ',   1.0000,1,   7,  18,   1,0.95481, -15.5819
152040,'鲁董家站35  ',  38.5000,1,   7,  18,   1,0.95480, -15.5818
152041,'鲁杜庙站1号 ',   1.0000,1,   7,  18,   1,0.94624,  -6.7268
152042,'鲁杜庙站220 ', 230.0000,1,   7,  18,   1,0.96596,  -3.8580
152043,'鲁杜庙站2号 ',   1.0000,1,   7,  18,   1,0.94587,  -6.8002
152044,'鲁杜庙站35  ',  38.5000,1,   7,  18,   1,0.94606,  -6.7618
152046,'鲁杜庄站220 ', 230.0000,1,   7,  18,   1,0.95631, -10.1016
152047,'鲁杜庄站35  ',  38.5000,1,   7,  18,   1,0.95464, -12.9346
152048,'鲁杜庄站3号 ',   1.0000,1,   7,  18,   1,0.94848, -12.9255
152049,'鲁端庄站1号 ',   1.0000,1,   7,  18,   1,0.92822, -12.8644
152050,'鲁端庄站220 ', 230.0000,1,   7,  18,   1,0.94641,  -9.6380
152051,'鲁端庄站2号 ',   1.0000,1,   7,  18,   1,0.92902, -12.7651
152052,'鲁端庄站35  ',  38.5000,1,   7,  18,   1,0.94831, -12.8567
152053,'鲁法家站11  ',  11.0000,1,   7,  18,   1,0.92251, -24.6049
152054,'鲁法家站1号 ',   1.0000,1,   7,  18,   1,0.90648, -24.3364
152055,'鲁法家站220 ', 230.0000,1,   7,  18,   1,0.94166, -18.0697
152056,'鲁法家站2号 ',   1.0000,1,   7,  18,   1,0.90361, -24.8147
152058,'鲁方下站1号 ',   1.0000,1,   7,  18,   1,0.93135, -16.6791
152059,'鲁方下站220 ', 230.0000,1,   7,  18,   1,0.95228, -13.2318
152060,'鲁方下站2号 ',   1.0000,1,   7,  18,   1,0.93154, -16.6813
152061,'鲁仿山站1号 ',   1.0000,1,   7,  18,   1,0.95291, -12.4989
152062,'鲁仿山站220 ', 230.0000,1,   7,  18,   1,0.95789,  -9.8945
152063,'鲁仿山站2号 ',   1.0000,1,   7,  18,   1,0.95287, -12.5396
152064,'鲁仿山站35  ',  38.5000,1,   7,  18,   1,0.95827, -12.5307
152066,'鲁飞鹰站10.5',  11.0000,1,   7,  18,   1,0.93167, -20.6501
152067,'鲁飞鹰站1号 ',   1.0000,1,   7,  18,   1,0.93167, -20.6501
152068,'鲁飞鹰站220 ', 230.0000,1,   7,  18,   1,0.95180, -17.8337
152069,'鲁飞鹰站2号 ',   1.0000,1,   7,  18,   1,0.93167, -20.6501
152070,'鲁费县厂01号',   6.3000,1,   7,  18,   1,0.97021,  -6.2405
152071,'鲁费县厂01中',   6.3000,1,   7,  18,   1,0.97021,  -6.2405
152072,'鲁费县厂02号',  10.0000,1,   7,  18,   1,0.97021,  -6.2405
152073,'鲁费县厂10  ',  10.5000,1,   7,  18,   1,0.97021,  -6.2405
152074,'鲁费县厂1号 ',  22.0000,2,   7,  18,   1,1.00000,   2.8837
152075,'鲁费县厂220 ', 230.0000,1,   7,  18,   1,0.97021,  -6.2405
152076,'鲁费县厂2号 ',  22.0000,2,   7,  18,   1,1.00000,   2.8837
152077,'鲁费县厂6.3 ',   6.3000,1,   7,  18,   1,0.97021,  -6.2405
152078,'鲁丰粟站1号 ',   1.0000,1,   7,  18,   1,0.88926, -36.3737
152079,'鲁丰粟站220 ', 230.0000,1,   7,  18,   1,0.90109, -34.3848
152080,'鲁丰粟站2号 ',   1.0000,1,   7,  18,   1,0.88926, -36.3737
152081,'鲁丰粟站35  ',  38.5000,1,   7,  18,   1,0.88926, -36.3737
152082,'鲁丰台站1号 ',   1.0000,1,   7,  18,   1,0.93563, -26.0208
152083,'鲁丰台站220 ', 230.0000,1,   7,  18,   1,0.97186, -21.4360
152084,'鲁丰台站35  ',  38.5000,1,   7,  18,   1,0.93563, -26.0208
152085,'鲁凤凰站1号 ',   1.0000,1,   7,  18,   1,0.93869,  -6.4928
152086,'鲁凤凰站220 ', 230.0000,1,   7,  18,   1,0.96704,  -2.7052
152087,'鲁凤凰站2号 ',   1.0000,1,   7,  18,   1,0.93784,  -6.6147
152088,'鲁凤凰站35  ',  38.5000,1,   7,  18,   1,0.93823,  -6.5578
152089,'鲁凤林站11  ',  11.0000,1,   7,  18,   1,0.89085, -36.0248
152090,'鲁凤林站1号 ',   1.0000,1,   7,  18,   1,0.88752, -35.9588
152091,'鲁凤林站220 ', 230.0000,1,   7,  18,   1,0.92356, -29.9564
152092,'鲁凤林站2号 ',   1.0000,1,   7,  18,   1,0.88716, -36.0760
152093,'鲁佛山站1号 ',   1.0000,1,   7,  18,   1,0.97069,  -8.5985
152094,'鲁佛山站220 ', 230.0000,1,   7,  18,   1,0.97354,  -6.2182
152095,'鲁佛山站2号 ',   1.0000,1,   7,  18,   1,0.97063,  -8.6021
152096,'鲁佛山站35  ',  38.5000,1,   7,  18,   1,0.97985,  -8.6125
152097,'鲁福山站1号 ',   1.0000,1,   7,  18,   1,0.86795, -42.1052
152098,'鲁福山站220 ', 230.0000,1,   7,  18,   1,0.89015, -36.6003
152099,'鲁福山站2号 ',   1.0000,1,   7,  18,   1,0.86791, -42.1044
152100,'鲁福山站35  ',  38.5000,1,   7,  18,   1,0.87252, -42.1306
152101,'鲁福山站3号 ',   1.0000,1,   7,  18,   1,0.86730, -42.1460
152102,'鲁付家站1号 ',   1.0000,1,   7,  18,   1,0.91129, -23.6825
152103,'鲁付家站2号 ',   1.0000,1,   7,  18,   1,0.91128, -23.6470
152104,'鲁岗嵛站10.5',  10.5000,1,   7,  18,   1,0.88849, -40.0369
152105,'鲁岗嵛站1号 ',   1.0000,1,   7,  18,   1,0.87938, -40.0382
152106,'鲁岗嵛站220 ', 230.0000,1,   7,  18,   1,0.89050, -36.5999
152107,'鲁岗嵛站2号 ',   1.0000,1,   7,  18,   1,0.87931, -40.0334
152108,'鲁岗嵛站3号 ',   1.0000,1,   7,  18,   1,0.87848, -40.0114
152109,'鲁钢城站1号 ',   1.0000,1,   7,  18,   1,0.94810, -14.2400
152110,'鲁钢城站220 ', 230.0000,1,   7,  18,   1,0.95766, -12.2016
152111,'鲁钢城站2号 ',   1.0000,1,   7,  18,   1,0.94835, -14.2158
152112,'鲁钢城站35  ',  38.5000,1,   7,  18,   1,0.95233, -14.2155
152113,'鲁钢城站3号 ',   1.0000,1,   7,  18,   1,0.94856, -14.1749
152114,'鲁高密站1号 ',   1.0000,1,   7,  18,   1,0.93392, -25.0881
152115,'鲁高密站220 ', 230.0000,1,   7,  18,   1,0.96818, -19.4636
152116,'鲁高密站2号 ',   1.0000,1,   7,  18,   1,0.93484, -25.1158
152117,'鲁高密站35  ',  38.5000,1,   7,  18,   1,0.94199, -25.1101
152118,'鲁高新站10.5',  10.5000,1,   7,  18,   1,0.92310,  -8.4887
152119,'鲁高新站1号 ',   1.0000,1,   7,  18,   1,0.92364,  -8.4073
152120,'鲁高新站220 ', 230.0000,1,   7,  18,   1,0.96148,  -3.0581
152121,'鲁高新站2号 ',   1.0000,1,   7,  18,   1,0.92252,  -8.5764
152122,'鲁高余站220 ', 230.0000,1,   7,  18,   1,0.97647,  -5.1087
152123,'鲁高余站2号 ',   1.0000,1,   7,  18,   1,0.95941,  -7.9146
152124,'鲁高余站35  ',  38.5000,1,   7,  18,   1,0.96445,  -7.9240
152125,'鲁高余站3号 ',   1.0000,1,   7,  18,   1,0.95941,  -7.9166
152126,'鲁耿庄站1号 ',   1.0000,1,   7,  18,   1,0.92507, -18.5501
152127,'鲁耿庄站220 ', 230.0000,1,   7,  18,   1,0.93512, -12.1183
152128,'鲁耿庄站2号 ',   1.0000,1,   7,  18,   1,0.92608, -18.3911
152129,'鲁耿庄站35  ',  38.5000,1,   7,  18,   1,0.94922, -18.5181
152130,'鲁古柳站1号 ',   1.0000,1,   7,  18,   1,0.90670, -33.7832
152131,'鲁古柳站220 ', 230.0000,1,   7,  18,   1,0.92608, -29.2183
152132,'鲁古柳站2号 ',   1.0000,1,   7,  18,   1,0.90646, -33.7858
152133,'鲁古柳站35  ',  38.5000,1,   7,  18,   1,0.91389, -33.7955
152134,'鲁官路站1号 ',   1.0000,1,   7,  18,   1,0.93099, -25.0861
152135,'鲁官路站220 ', 230.0000,1,   7,  18,   1,0.96669, -19.9195
152137,'鲁官路站35  ',  38.5000,1,   7,  18,   1,0.93099, -25.0861
152141,'鲁光岳站1号 ',   1.0000,1,   7,  18,   1,0.94402,  -8.9397
152142,'鲁光岳站220 ', 230.0000,1,   7,  18,   1,0.95872,  -7.1672
152143,'鲁光岳站2号 ',   1.0000,1,   7,  18,   1,0.94402,  -8.9397
152144,'鲁光岳站35  ',  38.5000,1,   7,  18,   1,0.94402,  -8.9397
152147,'鲁光州站220 ', 230.0000,1,   7,  18,   1,0.92650, -30.0495
152154,'鲁光州站500 ', 525.0000,1,   7,  18,   1,0.96718, -21.3396
152155,'鲁广利站1号 ',   1.0000,1,   7,  18,   1,0.96362, -25.1513
152156,'鲁广利站220 ', 230.0000,1,   7,  18,   1,0.97431, -23.6890
152157,'鲁广利站2号 ',   1.0000,1,   7,  18,   1,0.96362, -25.1513
152158,'鲁广利站35  ',  38.5000,1,   7,  18,   1,0.96362, -25.1513
152159,'鲁广源站1号 ',   1.0000,1,   7,  18,   1,0.94688, -26.9310
152160,'鲁广源站220 ', 230.0000,1,   7,  18,   1,0.96327, -22.5884
152161,'鲁广源站2号 ',   1.0000,1,   7,  18,   1,0.94675, -26.9860
152162,'鲁广源站35  ',  38.5000,1,   7,  18,   1,0.95595, -26.9731
152163,'鲁郭集站1号 ',   1.0000,1,   7,  18,   1,0.97230, -22.1169
152164,'鲁郭集站220 ', 230.0000,1,   7,  18,   1,0.98292, -18.4167
152165,'鲁郭集站2号 ',   1.0000,1,   7,  18,   1,0.97278, -22.1143
152166,'鲁郭集站35  ',  38.5000,1,   7,  18,   1,0.98371, -22.1301
152167,'鲁果里站1号 ',   1.0000,1,   7,  18,   1,0.94900, -26.7152
152168,'鲁果里站220 ', 230.0000,1,   7,  18,   1,0.97464, -21.7321
152169,'鲁果里站35  ',  38.5000,1,   7,  18,   1,0.95583, -26.7233
152170,'鲁海发站10.5',  10.5000,1,   7,  18,   1,0.92050, -30.8122
152171,'鲁海发站1号 ',   1.0000,1,   7,  18,   1,0.91816, -30.7632
152172,'鲁海发站220 ', 230.0000,1,   7,  18,   1,0.93178, -28.1827
152173,'鲁海发站2号 ',   1.0000,1,   7,  18,   1,0.91743, -30.8162
152174,'鲁海河站1号 ',   1.0000,1,   7,  18,   1,0.95112, -22.6036
152175,'鲁海河站220 ', 230.0000,1,   7,  18,   1,0.96171, -19.4353
152176,'鲁海河站2号 ',   1.0000,1,   7,  18,   1,0.95112, -22.6036
152177,'鲁海河站35  ',  38.5000,1,   7,  18,   1,0.95785, -22.6126
152178,'鲁寒亭站10.5',  10.5000,1,   7,  18,   1,0.94579, -20.8434
152179,'鲁寒亭站1号 ',   1.0000,1,   7,  18,   1,0.94617, -20.8108
152180,'鲁寒亭站220 ', 230.0000,1,   7,  18,   1,0.96725, -18.0152
152181,'鲁寒亭站2号 ',   1.0000,1,   7,  18,   1,0.94546, -20.8722
152182,'鲁韩仓站1号 ',   1.0000,1,   7,  18,   1,0.91793, -23.2988
152183,'鲁韩仓站220 ', 230.0000,1,   7,  18,   1,0.94857, -18.2188
152184,'鲁韩仓站2号 ',   1.0000,1,   7,  18,   1,0.91793, -23.2988
152185,'鲁韩仓站35  ',  38.5000,1,   7,  18,   1,0.91793, -23.2988
152186,'鲁菏泽厂01号',   6.3000,1,   7,  18,   1,0.96526,  -9.8578
152187,'鲁菏泽厂02号',   6.3000,1,   7,  18,   1,0.96526,  -9.8578
152188,'鲁菏泽厂02中',   6.3000,1,   7,  18,   1,0.96526,  -9.8578
152189,'鲁菏泽厂03号',   6.3000,1,   7,  18,   1,0.96526,  -9.8578
152190,'鲁菏泽厂03中',   6.3000,1,   7,  18,   1,0.96526,  -9.8578
152191,'鲁菏泽厂1号 ',  13.8000,2,   7,  18,   1,0.98750,  -7.4148
152192,'鲁菏泽厂1号 ',   1.0000,1,   7,  18,   1,0.98863,  -7.1483
152193,'鲁菏泽厂220 ', 230.0000,1,   7,  18,   1,0.96174,  -9.2361
152194,'鲁菏泽厂2号 ',  13.8000,2,   7,  18,   1,0.98745,  -7.4025
152195,'鲁菏泽厂2号 ',   1.0000,1,   7,  18,   1,0.98885,  -7.1141
152196,'鲁菏泽厂3号 ',  20.0000,2,   7,  18,   1,1.00000,  -3.0747
152197,'鲁菏泽厂4号 ',  20.0000,2,   7,  18,   1,0.95367,  -9.7030
152198,'鲁菏泽厂5号 ',  20.0000,2,   7,  18,   1,1.00000,  -1.3473
152199,'鲁菏泽厂6.3 ',   6.3000,1,   7,  18,   1,0.96526,  -9.8578
152200,'鲁菏泽厂6号 ',  20.0000,2,   7,  18,   1,0.95252,  -9.7680
152201,'鲁恒顺站110 ', 115.0000,1,   7,  18,   1,0.87133, -42.8717
152202,'鲁恒顺站1号 ',   1.0000,1,   7,  18,   1,0.86996, -43.0583
152203,'鲁恒顺站220 ', 230.0000,1,   7,  18,   1,0.87296, -37.9980
152204,'鲁恒顺站2号 ',   1.0000,1,   7,  18,   1,0.86975, -43.0916
152205,'鲁恒顺站35  ',  38.5000,1,   7,  18,   1,0.89186, -43.0674
152206,'鲁恒顺站3号 ',   1.0000,1,   7,  18,   1,0.87000, -43.0525
152207,'鲁红庙站1号 ',   1.0000,1,   7,  18,   1,0.98055, -13.1994
152208,'鲁红庙站220 ', 230.0000,1,   7,  18,   1,0.97895,  -9.4178
152209,'鲁红庙站2号 ',   1.0000,1,   7,  18,   1,0.97997, -13.2565
152210,'鲁红庙站35  ',  38.5000,1,   7,  18,   1,0.99640, -13.2282
152211,'鲁宏图站1号 ',   1.0000,1,   7,  18,   1,0.96168, -19.9690
152212,'鲁宏图站220 ', 230.0000,1,   7,  18,   1,0.98332, -17.1528
152213,'鲁宏图站35  ',  38.5000,1,   7,  18,   1,0.96168, -19.9690
152215,'鲁后村站220 ', 230.0000,1,   7,  18,   1,0.95971,  -6.0654
152216,'鲁后村站35  ',  38.5000,1,   7,  18,   1,0.94516,  -7.9774
152217,'鲁后村站3号 ',   1.0000,1,   7,  18,   1,0.94516,  -7.9774
152218,'鲁虎山站1号 ',   1.0000,1,   7,  18,   1,0.95357, -27.9521
152219,'鲁虎山站220 ', 230.0000,1,   7,  18,   1,0.95778, -24.2916
152220,'鲁虎山站2号 ',   1.0000,1,   7,  18,   1,0.95368, -27.8912
152221,'鲁虎山站35  ',  38.5000,1,   7,  18,   1,0.96672, -27.9278
152222,'鲁虎山站3号 ',   1.0000,1,   7,  18,   1,0.95262, -27.9197
152224,'鲁华德厂01号',   6.3000,1,   7,  18,   1,0.97471, -17.5134
152225,'鲁华德厂01中',   6.3000,1,   7,  18,   1,0.97471, -17.5134
152226,'鲁华德厂02号',   6.3000,1,   7,  18,   1,0.97471, -17.5134
152227,'鲁华德厂02中',   6.3000,1,   7,  18,   1,0.97471, -17.5134
152228,'鲁华德厂03号',   6.3000,1,   7,  18,   1,0.97471, -17.5134
152229,'鲁华德厂03中',   6.3000,1,   7,  18,   1,0.97471, -17.5134
152230,'鲁华德厂1号 ',  20.0000,2,   7,  18,   1,0.97471, -17.5134
152231,'鲁华德厂220 ', 230.0000,1,   7,  18,   1,0.97471, -17.5134
152232,'鲁华德厂2号 ',  20.0000,2,   7,  18,   1,0.97471, -17.5134
152233,'鲁华德厂35  ',  38.5000,1,   7,  18,   1,0.97496, -17.8284
152234,'鲁华德厂3号 ',  20.0000,2,   7,  18,   1,1.00000, -11.3498
152235,'鲁华德厂4号 ',  20.0000,2,   7,  18,   1,1.00000,  -6.3948
152241,'鲁华德厂500 ', 525.0000,1,   7,  18,   1,0.98248, -13.4848
152242,'鲁华德厂5号 ',  23.0000,2,   7,  18,   1,1.00000,  -7.1019
152243,'鲁华德厂6.3 ',   6.3000,1,   7,  18,   1,0.97471, -17.5134
152244,'鲁华德厂6号 ',  23.0000,2,   7,  18,   1,0.97589, -13.8583
152245,'鲁华德厂联变',   1.0000,1,   7,  18,   1,0.97496, -17.8284
152249,'鲁华宇厂01号',   1.0000,1,   7,  18,   1,0.93513, -11.0005
152250,'鲁华宇厂01中',   6.3000,1,   7,  18,   1,0.93513, -11.0005
152251,'鲁华宇厂1号 ',  13.8000,2,   7,  18,   1,0.99000,  -2.7670
152252,'鲁华宇厂220 ', 230.0000,1,   7,  18,   1,0.93513, -11.0005
152253,'鲁华宇厂2号 ',  13.8000,2,   7,  18,   1,0.99416,  -2.8014
152254,'鲁华宇厂3号 ',  13.8000,2,   7,  18,   1,0.92297, -11.8934
152256,'鲁华宇厂6.3 ',   6.3000,1,   7,  18,   1,0.93513, -11.0005
152258,'鲁滨州站500 ', 525.0000,1,   7,  18,   1,0.98599, -15.2550
152259,'鲁化工站220 ', 230.0000,1,   7,  18,   1,0.96467, -22.8044
152260,'鲁化工站2号 ',   1.0000,1,   7,  18,   1,0.95891, -25.1899
152261,'鲁化工站35  ',  38.5000,1,   7,  18,   1,0.96493, -25.2020
152262,'鲁化工站3号 ',   1.0000,1,   7,  18,   1,0.95888, -25.1963
152263,'鲁桓台站1号 ',   1.0000,1,   7,  18,   1,0.93577, -28.8366
152264,'鲁桓台站220 ', 230.0000,1,   7,  18,   1,0.97126, -22.2187
152265,'鲁桓台站2号 ',   1.0000,1,   7,  18,   1,0.93760, -28.8610
152266,'鲁桓台站35  ',  38.5000,1,   7,  18,   1,0.94890, -28.8674
152267,'鲁黄埠岭站1 ',   1.0000,1,   7,  18,   1,0.93949, -28.7173
152268,'鲁黄埠岭站22', 230.0000,1,   7,  18,   1,0.95904, -23.7079
152269,'鲁黄埠岭站2 ',   1.0000,1,   7,  18,   1,0.93927, -28.7545
152270,'鲁黄埠岭站35',  38.5000,1,   7,  18,   1,0.96382, -28.7622
152271,'鲁黄岛厂01号',   6.3000,1,   7,  18,   1,0.94705, -20.6805
152272,'鲁黄岛厂02号',   1.0000,1,   7,  18,   1,0.94721, -20.6512
152273,'鲁黄岛厂02中',   6.3000,1,   7,  18,   1,0.94721, -20.6512
152274,'鲁黄岛厂03号',   1.0000,1,   7,  18,   1,0.96328, -18.0813
152275,'鲁黄岛厂03中',   6.3000,1,   7,  18,   1,0.96328, -18.0813
152276,'鲁黄岛厂1号 ',  13.8000,1,   7,  18,   1,0.95289, -19.7314
152277,'鲁黄岛厂1号 ',   1.0000,1,   7,  18,   1,0.95289, -19.7314
152278,'鲁黄岛厂220 ', 230.0000,1,   7,  18,   1,0.96365, -18.0916
152279,'鲁黄岛厂2号 ',  13.8000,1,   7,  18,   1,0.95302, -19.7032
152280,'鲁黄岛厂2号 ',   1.0000,1,   7,  18,   1,0.95302, -19.7032
152281,'鲁黄岛厂3号 ',  15.0000,2,   7,  18,   1,1.00000, -11.9023
152282,'鲁黄岛厂4号 ',  15.0000,2,   7,  18,   1,1.00000, -11.9023
152283,'鲁黄岛厂5号 ',  20.0000,2,   7,  18,   1,1.00000,  -0.2603
152284,'鲁黄岛厂5号 ', 230.0000,1,   7,  18,   1,0.97832,  -7.8287
152285,'鲁黄岛厂6.3 ',   6.3000,1,   7,  18,   1,0.95699, -19.0235
152286,'鲁黄岛厂6号 ',  20.0000,2,   7,  18,   1,1.00000,  -0.8757
152287,'鲁黄岛厂6号 ', 230.0000,1,   7,  18,   1,0.97791,  -8.4470
152288,'鲁黄台厂02号',   6.3000,1,   7,  18,   1,0.94987, -18.2978
152289,'鲁黄台厂02中',   6.3000,1,   7,  18,   1,0.94987, -18.2978
152290,'鲁黄台厂10号',  20.0000,2,   7,  18,   1,0.94987, -18.2978
152291,'鲁黄台厂220 ', 230.0000,1,   7,  18,   1,0.94987, -18.2978
152294,'鲁黄台厂6.3 ',   6.3000,1,   7,  18,   1,0.94987, -18.2978
152297,'鲁黄台厂7号 ',  18.0000,2,   7,  18,   1,1.00000, -11.4815
152298,'鲁黄台厂8号 ',  18.0000,2,   7,  18,   1,0.94229, -18.7385
152299,'鲁黄台厂9号 ',  18.0000,2,   7,  18,   1,0.94987, -18.2978
152300,'鲁汇河站1号 ',   1.0000,1,   7,  18,   1,0.94701, -14.8060
152301,'鲁汇河站220 ', 230.0000,1,   7,  18,   1,0.95401, -13.8104
152302,'鲁汇河站2号 ',   1.0000,1,   7,  18,   1,0.94692, -14.8192
152303,'鲁汇河站35  ',  38.5000,1,   7,  18,   1,0.94696, -14.8125
152304,'鲁汇鑫站1号 ',   1.0000,1,   7,  18,   1,0.92748, -13.9123
152305,'鲁汇鑫站220 ', 230.0000,1,   7,  18,   1,0.93750, -11.3593
152306,'鲁汇鑫站2号 ',   1.0000,1,   7,  18,   1,0.92726, -13.9641
152307,'鲁汇鑫站35  ',  38.5000,1,   7,  18,   1,0.93170, -13.9450
152308,'鲁惠沣站10.5',  11.0000,1,   7,  18,   1,0.94007, -21.5244
152309,'鲁惠沣站1号 ',   1.0000,1,   7,  18,   1,0.92209, -21.5164
152310,'鲁惠沣站220 ', 230.0000,1,   7,  18,   1,0.94061, -17.6223
152311,'鲁即墨站1号 ',   1.0000,1,   7,  18,   1,0.94976, -26.2850
152312,'鲁即墨站220 ', 230.0000,1,   7,  18,   1,0.97010, -22.9398
152313,'鲁即墨站2号 ',   1.0000,1,   7,  18,   1,0.95120, -26.1031
152314,'鲁即墨站35  ',  38.5000,1,   7,  18,   1,0.95489, -26.1970
152315,'鲁济南站1号 ',   1.0000,1,   7,  18,   1,0.95378, -17.9461
152316,'鲁济南站220 ', 230.0000,1,   7,  18,   1,0.95533, -17.4191
152317,'鲁济南站351 ',  38.5000,1,   7,  18,   1,0.95378, -17.9461
152318,'鲁济南站353 ',  38.5000,1,   7,  18,   1,1.03269, -18.0071
152319,'鲁济南站3号 ',   1.0000,1,   7,  18,   1,0.95008, -17.9440
152325,'鲁济南站500 ', 525.0000,1,   7,  18,   1,0.97539, -12.6472
152326,'鲁济宁厂1号 ',  10.5000,2,   7,  18,   1,1.00000,   9.0767
152328,'鲁济宁厂220 ', 230.0000,1,   7,  18,   1,0.96800,  -2.3304
152329,'鲁济宁厂2号 ',  10.5000,2,   7,  18,   1,1.00000,   9.0767
152334,'鲁济宁厂5号 ',  13.8000,2,   7,  18,   1,0.98953,  -0.5102
152335,'鲁济宁厂5号 ',   1.0000,1,   7,  18,   1,0.99251,  -0.1211
152336,'鲁济宁厂6号 ',  13.8000,2,   7,  18,   1,0.96132,  -2.7565
152339,'鲁嘉祥厂1号 ',  22.0000,2,   7,  18,   1,0.99000,   2.4211
152340,'鲁嘉祥厂2号 ',  22.0000,2,   7,  18,   1,0.98011,  -5.8720
152341,'鲁嘉祥厂500 ', 525.0000,1,   7,  18,   1,0.98905,  -5.3716
152342,'鲁嘉祥站1号 ',   1.0000,1,   7,  18,   1,0.92401, -10.9510
152343,'鲁嘉祥站220 ', 230.0000,1,   7,  18,   1,0.96196,  -5.2760
152344,'鲁嘉祥站35  ',  38.5000,1,   7,  18,   1,0.92401, -10.9510
152345,'鲁贾庄站220 ', 230.0000,1,   7,  18,   1,0.96461, -18.4838
152346,'鲁贾庄站2号 ',   1.0000,1,   7,  18,   1,0.93178, -23.8829
152347,'鲁贾庄站35  ',  38.5000,1,   7,  18,   1,0.93680, -23.8483
152348,'鲁贾庄站3号 ',   1.0000,1,   7,  18,   1,0.93243, -23.8034
152349,'鲁建国站1号 ',   1.0000,1,   7,  18,   1,0.94040,  -8.1561
152350,'鲁建国站220 ', 230.0000,1,   7,  18,   1,0.96205,  -5.1256
152351,'鲁建国站2号 ',   1.0000,1,   7,  18,   1,0.93992,  -8.2218
152352,'鲁建国站35  ',  38.5000,1,   7,  18,   1,0.94016,  -8.1885
152353,'鲁江泉热电1 ',  13.8000,2,   7,  18,   1,0.98746,  -9.2194
152354,'鲁江泉热电1 ',   1.0000,1,   7,  18,   1,0.99099,  -8.7081
152355,'鲁江泉热电22', 230.0000,1,   7,  18,   1,0.94585, -13.5755
152356,'鲁江泉热电2 ',  13.8000,2,   7,  18,   1,0.98746,  -9.2194
152357,'鲁江泉热电2 ',   1.0000,1,   7,  18,   1,0.99099,  -8.7081
152358,'鲁江泉热电35',  38.5000,1,   7,  18,   1,0.97430, -10.6728
152359,'鲁江泉热电3 ',  13.8000,2,   7,  18,   1,0.95990, -11.9494
152360,'鲁江泉热电3 ',   1.0000,1,   7,  18,   1,0.95952, -11.9816
152361,'鲁蒋庄站1号 ',   1.0000,1,   7,  18,   1,0.92619, -16.6045
152362,'鲁蒋庄站220 ', 230.0000,1,   7,  18,   1,0.94249, -10.8687