1,   100.00, 31, 0, 1, 50.00     / PSS(R)E-31.0    TUE, MAY 23 2017  10:33
2010年华中华北联网冬1217(正式发布)  CASE NO. 214
BY APSAL, SHANDONG UNIVERSITY, ON 2010-03-22 07:57:04 PM
127100,'冀辛安51 ', 525.0000,3,   2,   2,   1,1.00000,   0.0000
129133,'冀黄骅51 ', 525.0000,2,   2,   2,   1,1.00000, 104.3638
151801,'鲁安东站',  10.5000,1,   7,  18,   1,0.87464, 120.8183
151802,'鲁安东站', 230.0000,1,   7,  18,   1,0.89393, 126.3302
151803,'鲁安东站',   1.0000,1,   7,  18,   1,0.85813, 120.8368
151804,'鲁安东站',   1.0000,1,   7,  18,   1,0.85808, 120.8225
151805,'鲁安丘站',   1.0000,1,   7,  18,   1,0.83021, 105.6557
151806,'鲁安丘站', 230.0000,1,   7,  18,   1,0.85911, 110.1275
151807,'鲁安丘站',   1.0000,1,   7,  18,   1,0.83031, 105.6707
151808,'鲁安丘站',  38.5000,1,   7,  18,   1,0.83921, 105.6479
151809,'鲁八角厂',  20.0000,2,   7,  18,   1,0.26357, 143.1587
151810,'鲁八角厂', 230.0000,1,   7,  18,   1,0.26357, 143.1587
151812,'鲁八里站',   1.0000,1,   7,  18,   1,0.90621, 108.6615
151813,'鲁八里站', 230.0000,1,   7,  18,   1,0.93391, 113.4834
151814,'鲁八里站',   1.0000,1,   7,  18,   1,0.90649, 108.5988
151815,'鲁八里站',  38.5000,1,   7,  18,   1,0.91210, 108.6221
151816,'鲁白杨河',   6.3000,1,   7,  18,   1,0.83145,  95.6426
151818,'鲁白杨河',  13.8000,2,   7,  18,   1,0.85022,  98.1365
151819,'鲁白杨河',   1.0000,1,   7,  18,   1,0.85022,  98.1365
151820,'鲁白杨河',  13.8000,2,   7,  18,   1,0.85033,  98.1504
151821,'鲁白杨河',   1.0000,1,   7,  18,   1,0.85033,  98.1504
151822,'鲁白杨河',  20.0000,2,   7,  18,   1,1.00000, 113.5025
151823,'鲁白杨河',  20.0000,2,   7,  18,   1,0.86983, 100.9544
151825,'鲁白杨河', 230.0000,1,   7,  18,   1,0.88182, 101.7110
151830,'鲁白杨河', 230.0000,1,   7,  18,   1,0.88107, 101.6497
151833,'鲁白庄站',   1.0000,1,   7,  18,   1,0.90480,  98.8719
151834,'鲁白庄站', 230.0000,1,   7,  18,   1,0.92594, 102.0494
151835,'鲁白庄站',   1.0000,1,   7,  18,   1,0.90490,  98.8777
151836,'鲁白庄站',  38.5000,1,   7,  18,   1,0.90789,  98.8697
151837,'鲁百脉站',   1.0000,1,   7,  18,   1,0.87210,  65.4021
151838,'鲁百脉站', 230.0000,1,   7,  18,   1,0.90196,  70.3212
151839,'鲁百脉站',   1.0000,1,   7,  18,   1,0.87207,  65.3976
151840,'鲁百脉站',  38.5000,1,   7,  18,   1,0.87871,  65.3937
151841,'鲁宝都站',   1.0000,1,   7,  18,   1,0.79315,  98.9189
151842,'鲁宝都站', 230.0000,1,   7,  18,   1,0.82039, 102.9750
151843,'鲁宝都站',   1.0000,1,   7,  18,   1,0.79121,  98.8202
151844,'鲁宝都站',  38.5000,1,   7,  18,   1,0.79976,  98.8649
151845,'鲁宝泉站',   1.0000,1,   7,  18,   1,0.86022, 110.4023
151846,'鲁宝泉站', 230.0000,1,   7,  18,   1,0.88986, 117.0160
151847,'鲁宝泉站',   1.0000,1,   7,  18,   1,0.86033, 110.4109
151848,'鲁宝泉站',  38.5000,1,   7,  18,   1,0.87172, 110.3874
151849,'鲁北海站',   1.0000,1,   7,  18,   1,0.73909, 100.9382
151850,'鲁北海站', 230.0000,1,   7,  18,   1,0.77801, 104.7631
151851,'鲁北海站',  38.5000,1,   7,  18,   1,0.73909, 100.9382
151852,'鲁北马站',   1.0000,1,   7,  18,   1,0.30667, 138.3130
151853,'鲁北马站', 230.0000,1,   7,  18,   1,0.33957, 140.6451
151854,'鲁北马站',   1.0000,1,   7,  18,   1,0.30667, 138.3131
151855,'鲁北马站',  38.5000,1,   7,  18,   1,0.30667, 138.3131
151860,'鲁滨湖站', 230.0000,1,   7,  18,   1,0.94189, 121.6339
151861,'鲁滨湖站',  38.5000,1,   7,  18,   1,0.93255, 120.4378
151862,'鲁滨湖站',   1.0000,1,   7,  18,   1,0.93255, 120.4378
151864,'鲁滨州站', 230.0000,1,   7,  18,   1,0.90645,  92.6036
151866,'鲁滨州站',  38.5000,1,   7,  18,   1,0.93930,  92.0432
151867,'鲁滨州站',   1.0000,1,   7,  18,   1,0.90657,  92.0710
151874,'鲁博山站',   1.0000,1,   7,  18,   1,0.84541,  96.3871
151875,'鲁博山站', 230.0000,1,   7,  18,   1,0.88097, 101.5535
151876,'鲁博山站',   1.0000,1,   7,  18,   1,0.84545,  96.3860
151877,'鲁彩虹站',  11.0000,1,   7,  18,   1,0.86496,  65.7548
151878,'鲁彩虹站',   1.0000,1,   7,  18,   1,0.86496,  65.7548
151879,'鲁彩虹站', 230.0000,1,   7,  18,   1,0.88040,  67.7421
151880,'鲁蚕庄站',   1.0000,1,   7,  18,   1,0.28945, 132.5871
151881,'鲁蚕庄站', 230.0000,1,   7,  18,   1,0.35977, 137.3290
151882,'鲁蚕庄站',   1.0000,1,   7,  18,   1,0.28970, 132.5750
151883,'鲁蚕庄站',  38.5000,1,   7,  18,   1,0.29201, 132.5707
151884,'鲁苍山站',   1.0000,1,   7,  18,   1,0.88294, 112.5148
151885,'鲁苍山站', 230.0000,1,   7,  18,   1,0.88263, 115.6592
151886,'鲁苍山站',   1.0000,1,   7,  18,   1,0.88259, 112.4584
151887,'鲁苍山站',  38.5000,1,   7,  18,   1,0.89764, 112.4605
151888,'鲁曹城站',   1.0000,1,   7,  18,   1,0.90145,  95.2424
151889,'鲁曹城站', 230.0000,1,   7,  18,   1,0.91546,  99.4493
151890,'鲁曹城站',   1.0000,1,   7,  18,   1,0.90202,  95.1696
151891,'鲁曹城站',  38.5000,1,   7,  18,   1,0.91086,  95.1880
151892,'鲁昌邑站',   1.0000,1,   7,  18,   1,0.79760, 101.3562
151893,'鲁昌邑站', 230.0000,1,   7,  18,   1,0.84720, 107.8876
151894,'鲁昌邑站',   1.0000,1,   7,  18,   1,0.79889, 101.4870
151895,'鲁昌邑站',  38.5000,1,   7,  18,   1,0.80718, 101.3940
151896,'鲁长清站', 230.0000,1,   7,  18,   1,0.91257,  54.4303
151897,'鲁长清站',   1.0000,1,   7,  18,   1,0.91194,  54.1024
151898,'鲁长清站',  38.5000,1,   7,  18,   1,0.94287,  54.0817
151899,'鲁长清站',  38.5000,1,   7,  18,   1,0.94438,  54.1495
151900,'鲁长清站',   1.0000,1,   7,  18,   1,0.91158,  54.1576
151906,'鲁长清站', 525.0000,1,   7,  18,   1,0.91377,  57.9517
151907,'鲁长勺站',  11.0000,1,   7,  18,   1,0.88508, 103.8649
151908,'鲁长勺站',   1.0000,1,   7,  18,   1,0.88530, 103.8886
151909,'鲁长勺站', 230.0000,1,   7,  18,   1,0.90592, 106.3603
151910,'鲁长勺站',   1.0000,1,   7,  18,   1,0.88491, 103.8452
151911,'鲁常林站',   1.0000,1,   7,  18,   1,0.86465, 112.0268
151912,'鲁常林站', 230.0000,1,   7,  18,   1,0.89414, 117.8441
151913,'鲁常林站',  38.5000,1,   7,  18,   1,0.87832, 112.0001
151914,'鲁车道站',   1.0000,1,   7,  18,   1,0.28952, 133.5246
151915,'鲁车道站', 230.0000,1,   7,  18,   1,0.36792, 137.9493
151916,'鲁车道站',   1.0000,1,   7,  18,   1,0.28818, 133.4616
151917,'鲁车道站',  38.5000,1,   7,  18,   1,0.29130, 133.4769
151918,'鲁车王站',   1.0000,1,   7,  18,   1,0.89058,  89.0486
151919,'鲁车王站', 230.0000,1,   7,  18,   1,0.91044,  91.5215
151920,'鲁车王站',   1.0000,1,   7,  18,   1,0.89074,  89.0349
151921,'鲁车王站',  38.5000,1,   7,  18,   1,0.89346,  89.0412
151922,'鲁晨鸣3',   1.0000,1,   7,  18,   1,0.76118,  95.9895
151923,'鲁晨鸣热', 115.0000,1,   7,  18,   1,0.74068,  92.4027
151924,'鲁晨鸣热', 230.0000,1,   7,  18,   1,0.79923, 101.2700
151925,'鲁晨鸣热',  15.7500,2,   7,  18,   1,0.76118,  95.9895
151926,'鲁茌平厂',   1.0000,1,   7,  18,   1,0.87751,  38.9185
151927,'鲁茌平厂',   1.0000,1,   7,  18,   1,0.87751,  38.9185
151928,'鲁茌平厂', 115.0000,1,   7,  18,   1,0.86557,  37.6798
151929,'鲁茌平厂', 230.0000,1,   7,  18,   1,0.88994,  40.1171
151930,'鲁茌平厂',  38.5000,1,   7,  18,   1,0.91204,  43.5296
151931,'鲁茌平厂',   6.3000,1,   7,  18,   1,0.87751,  38.9185
151932,'鲁茌平厂',  13.8000,2,   7,  18,   1,0.86557,  37.6798
151933,'鲁茌平厂',  13.8000,2,   7,  18,   1,0.90872,  43.1606
151934,'鲁茌平厂',   1.0000,1,   7,  18,   1,0.91204,  43.5296
151935,'鲁茌平厂',  13.8000,2,   7,  18,   1,0.87877,  39.3763
151936,'鲁茌平厂',  13.8000,2,   7,  18,   1,0.88994,  40.1171
151937,'鲁冲山站',   1.0000,1,   7,  18,   1,0.85752,  96.2519
151938,'鲁冲山站', 230.0000,1,   7,  18,   1,0.88325, 101.5431
151939,'鲁冲山站',  38.5000,1,   7,  18,   1,0.86858,  96.2178
151940,'鲁崇义站',   1.0000,1,   7,  18,   1,0.15390, 146.3442
151941,'鲁崇义站', 230.0000,1,   7,  18,   1,0.20227, 149.2614
151942,'鲁崇义站',   1.0000,1,   7,  18,   1,0.15418, 146.3542
151943,'鲁崇义站',  38.5000,1,   7,  18,   1,0.15485, 146.3414
151945,'鲁大安站',   1.0000,1,   7,  18,   1,0.93218, 108.1101
151946,'鲁大安站', 230.0000,1,   7,  18,   1,0.94175, 110.6565
151947,'鲁大安站',  38.5000,1,   7,  18,   1,0.93807, 108.1026
151955,'鲁大兴站',   1.0000,1,   7,  18,   1,0.78304,  99.5671
151956,'鲁大兴站', 230.0000,1,   7,  18,   1,0.83205, 106.7503
151958,'鲁大兴站',  38.5000,1,   7,  18,   1,0.79548,  99.5422
151959,'鲁大杨站',   1.0000,1,   7,  18,   1,0.91172,  88.9573
151960,'鲁大杨站', 230.0000,1,   7,  18,   1,0.92670,  91.6433
151961,'鲁大杨站',  38.5000,1,   7,  18,   1,0.91742,  88.9602
151963,'鲁大泽站', 230.0000,1,   7,  18,   1,0.70274, 115.8912
151964,'鲁大泽站',   1.0000,1,   7,  18,   1,0.69827, 115.5011
151966,'鲁大泽站',  38.5000,1,   7,  18,   1,0.72661, 115.4765
151973,'鲁大泽站', 525.0000,1,   7,  18,   1,0.72149, 118.2675
151974,'鲁大正站',  10.5000,1,   7,  18,   1,0.85260,  61.6863
151976,'鲁大正站', 230.0000,1,   7,  18,   1,0.88742,  69.0063
151977,'鲁大正站',   1.0000,1,   7,  18,   1,0.83634,  61.6957
151978,'鲁大庄站',   1.0000,1,   7,  18,   1,0.77164, 119.2848
151979,'鲁大庄站', 230.0000,1,   7,  18,   1,0.80664, 123.4137
151980,'鲁大庄站',   1.0000,1,   7,  18,   1,0.77181, 119.2965
151981,'鲁大庄站',  38.5000,1,   7,  18,   1,0.77397, 119.2951
151982,'鲁大庄站',   1.0000,1,   7,  18,   1,0.77181, 119.3129
151983,'鲁单城站',   1.0000,1,   7,  18,   1,0.89533,  94.6158
151984,'鲁单城站', 230.0000,1,   7,  18,   1,0.90844,  99.0890
151985,'鲁单城站',   1.0000,1,   7,  18,   1,0.89455,  94.5405
151986,'鲁单城站',  38.5000,1,   7,  18,   1,0.90312,  94.5658
151987,'鲁党家庄',  10.5000,1,   7,  18,   1,0.86961,  46.5703
151989,'鲁党家庄',   1.0000,1,   7,  18,   1,0.85389,  46.5900
151990,'鲁党家庄', 230.0000,1,   7,  18,   1,0.88624,  51.6695
151991,'鲁党家庄',   1.0000,1,   7,  18,   1,0.85388,  46.5908
151992,'鲁德州站', 230.0000,1,   7,  18,   1,0.90169,  66.8514
151993,'鲁德州站',   1.0000,1,   7,  18,   1,0.89852,  66.5863
151994,'鲁德州站',  38.5000,1,   7,  18,   1,0.92933,  66.5600
151995,'鲁德州站',  38.5000,1,   7,  18,   1,0.90069,  66.5883
151996,'鲁德州站',   1.0000,1,   7,  18,   1,0.90069,  66.5883
152001,'鲁德州站', 525.0000,1,   7,  18,   1,0.91414,  68.5569
152002,'鲁丁庄站',   1.0000,1,   7,  18,   1,0.84398,  91.8744
152003,'鲁丁庄站', 230.0000,1,   7,  18,   1,0.85053,  92.6491
152004,'鲁丁庄站',   1.0000,1,   7,  18,   1,0.84398,  91.8744
152005,'鲁丁庄站',  38.5000,1,   7,  18,   1,0.84398,  91.8744
152006,'鲁东城站',  11.0000,1,   7,  18,   1,0.81206,  85.5271
152007,'鲁东城站',   1.0000,1,   7,  18,   1,0.80634,  85.6463
152008,'鲁东城站', 230.0000,1,   7,  18,   1,0.84882,  90.5597
152009,'鲁东城站',   1.0000,1,   7,  18,   1,0.80570,  85.4268
152010,'鲁东港站',  11.0000,1,   7,  18,   1,0.88198, 123.7785
152011,'鲁东港站',   1.0000,1,   7,  18,   1,0.88204, 123.7929
152012,'鲁东港站', 230.0000,1,   7,  18,   1,0.90562, 126.8358
152013,'鲁东港站',   1.0000,1,   7,  18,   1,0.88192, 123.7634
152014,'鲁东海厂',   6.3000,1,   7,  18,   1,0.25872, 153.8748
152015,'鲁东海厂',   6.3000,1,   7,  18,   1,0.25872, 153.8748
152016,'鲁东海厂',   6.3000,1,   7,  18,   1,0.25872, 153.8748
152017,'鲁东海厂',  13.8000,2,   7,  18,   1,0.25872, 153.8748
152018,'鲁东海厂', 230.0000,1,   7,  18,   1,0.25872, 153.8748
152019,'鲁东海厂',  13.8000,2,   7,  18,   1,0.25651, 153.3872
152020,'鲁东海厂',  18.0000,2,   7,  18,   1,0.29985, 178.1124
152021,'鲁东海厂',  18.0000,2,   7,  18,   1,0.29985, 178.1124
152022,'鲁东海厂',   6.3000,1,   7,  18,   1,0.25872, 153.8748
152023,'鲁东江站',   1.0000,1,   7,  18,   1,0.12136, 141.8668
152024,'鲁东江站', 230.0000,1,   7,  18,   1,0.25563, 149.6530
152025,'鲁东江站',   1.0000,1,   7,  18,   1,0.12007, 141.7495
152026,'鲁东江站',  38.5000,1,   7,  18,   1,0.12283, 141.7789
152027,'鲁东门站',  10.5000,1,   7,  18,   1,0.87806,  63.5158
152028,'鲁东门站',   1.0000,1,   7,  18,   1,0.85468,  63.4590
152029,'鲁东门站', 230.0000,1,   7,  18,   1,0.87837,  67.2585
152030,'鲁东门站',   1.0000,1,   7,  18,   1,0.85503,  63.6157
152032,'鲁东明站', 230.0000,1,   7,  18,   1,0.93425, 101.8536
152033,'鲁东明站',   1.0000,1,   7,  18,   1,0.91606,  98.6441
152034,'鲁东明站',  38.5000,1,   7,  18,   1,0.92002,  98.6393
152035,'鲁东明站',   1.0000,1,   7,  18,   1,0.91597,  98.6468
152037,'鲁董家站',   1.0000,1,   7,  18,   1,0.79910, 122.3553
152038,'鲁董家站', 230.0000,1,   7,  18,   1,0.80956, 123.5375
152039,'鲁董家站',   1.0000,1,   7,  18,   1,0.79910, 122.3549
152040,'鲁董家站',  38.5000,1,   7,  18,   1,0.79910, 122.3551
152041,'鲁杜庙站',   1.0000,1,   7,  18,   1,0.92186, 118.2202
152042,'鲁杜庙站', 230.0000,1,   7,  18,   1,0.94269, 121.1171
152043,'鲁杜庙站',   1.0000,1,   7,  18,   1,0.92147, 118.1458
152044,'鲁杜庙站',  38.5000,1,   7,  18,   1,0.92167, 118.1847
152046,'鲁杜庄站', 230.0000,1,   7,  18,   1,0.93818, 102.2801
152047,'鲁杜庄站',  38.5000,1,   7,  18,   1,0.93545,  99.4247
152048,'鲁杜庄站',   1.0000,1,   7,  18,   1,0.92941,  99.4338
152049,'鲁端庄站',   1.0000,1,   7,  18,   1,0.88897,  38.1078
152050,'鲁端庄站', 230.0000,1,   7,  18,   1,0.91010,  41.3818
152051,'鲁端庄站',   1.0000,1,   7,  18,   1,0.88985,  38.2091
152052,'鲁端庄站',  38.5000,1,   7,  18,   1,0.90827,  38.1165
152053,'鲁法家站',  11.0000,1,   7,  18,   1,0.82548,  90.8041
152054,'鲁法家站',   1.0000,1,   7,  18,   1,0.81167,  91.0835
152055,'鲁法家站', 230.0000,1,   7,  18,   1,0.85797,  97.5356
152056,'鲁法家站',   1.0000,1,   7,  18,   1,0.80808,  90.5837
152058,'鲁方下站',   1.0000,1,   7,  18,   1,0.87773, 103.9122
152059,'鲁方下站', 230.0000,1,   7,  18,   1,0.90257, 107.4293
152060,'鲁方下站',   1.0000,1,   7,  18,   1,0.87792, 103.9095
152061,'鲁仿山站',   1.0000,1,   7,  18,   1,0.93408,  99.8742
152062,'鲁仿山站', 230.0000,1,   7,  18,   1,0.93983, 102.4993
152063,'鲁仿山站',   1.0000,1,   7,  18,   1,0.93403,  99.8331
152064,'鲁仿山站',  38.5000,1,   7,  18,   1,0.93932,  99.8422
152066,'鲁飞鹰站',  11.0000,1,   7,  18,   1,0.86163,  65.9482
152067,'鲁飞鹰站',   1.0000,1,   7,  18,   1,0.86163,  65.9482
152068,'鲁飞鹰站', 230.0000,1,   7,  18,   1,0.88511,  68.8439
152069,'鲁飞鹰站',   1.0000,1,   7,  18,   1,0.86163,  65.9482
152070,'鲁费县厂',   6.3000,1,   7,  18,   1,0.93534, 125.2427
152071,'鲁费县厂',   6.3000,1,   7,  18,   1,0.93534, 125.2427
152072,'鲁费县厂',  10.0000,1,   7,  18,   1,0.93534, 125.2427
152073,'鲁费县厂',  10.5000,1,   7,  18,   1,0.93534, 125.2427
152074,'鲁费县厂',  22.0000,2,   7,  18,   1,1.00000, 134.6564
152075,'鲁费县厂', 230.0000,1,   7,  18,   1,0.93534, 125.2427
152076,'鲁费县厂',  22.0000,2,   7,  18,   1,1.00000, 134.6564
152077,'鲁费县厂',   6.3000,1,   7,  18,   1,0.93534, 125.2427
152078,'鲁丰粟站',   1.0000,1,   7,  18,   1,0.26021, 140.1846
152079,'鲁丰粟站', 230.0000,1,   7,  18,   1,0.29398, 142.3988
152080,'鲁丰粟站',   1.0000,1,   7,  18,   1,0.26021, 140.1846
152081,'鲁丰粟站',  38.5000,1,   7,  18,   1,0.26021, 140.1846
152082,'鲁丰台站',   1.0000,1,   7,  18,   1,0.72697, 100.0280
152083,'鲁丰台站', 230.0000,1,   7,  18,   1,0.78012, 104.9456
152084,'鲁丰台站',  38.5000,1,   7,  18,   1,0.72697, 100.0280
152085,'鲁凤凰站',   1.0000,1,   7,  18,   1,0.91998, 107.2945
152086,'鲁凤凰站', 230.0000,1,   7,  18,   1,0.94964, 111.1090
152087,'鲁凤凰站',   1.0000,1,   7,  18,   1,0.91909, 107.1716
152088,'鲁凤凰站',  38.5000,1,   7,  18,   1,0.91950, 107.2290
152089,'鲁凤林站',  11.0000,1,   7,  18,   1,0.17620, 142.6216
152090,'鲁凤林站',   1.0000,1,   7,  18,   1,0.17634, 142.6971
152091,'鲁凤林站', 230.0000,1,   7,  18,   1,0.28998, 148.8158
152092,'鲁凤林站',   1.0000,1,   7,  18,   1,0.17468, 142.5612
152093,'鲁佛山站',   1.0000,1,   7,  18,   1,0.94650, 101.3377
152094,'鲁佛山站', 230.0000,1,   7,  18,   1,0.95066, 103.7418
152095,'鲁佛山站',   1.0000,1,   7,  18,   1,0.94645, 101.3340
152096,'鲁佛山站',  38.5000,1,   7,  18,   1,0.95543, 101.3236
152097,'鲁福山站',   1.0000,1,   7,  18,   1,0.13987, 138.9837
152098,'鲁福山站', 230.0000,1,   7,  18,   1,0.23415, 144.4780
152099,'鲁福山站',   1.0000,1,   7,  18,   1,0.13984, 138.9858
152100,'鲁福山站',  38.5000,1,   7,  18,   1,0.14019, 138.9621
152101,'鲁福山站',   1.0000,1,   7,  18,   1,0.13885, 138.9506
152102,'鲁付家站',   1.0000,1,   7,  18,   1,0.82507,  92.3266
152103,'鲁付家站',   1.0000,1,   7,  18,   1,0.82510,  92.3643
152104,'鲁岗嵛站',  10.5000,1,   7,  18,   1,0.18102, 140.1085
152105,'鲁岗嵛站',   1.0000,1,   7,  18,   1,0.17868, 140.1071
152106,'鲁岗嵛站', 230.0000,1,   7,  18,   1,0.23773, 143.7181
152107,'鲁岗嵛站',   1.0000,1,   7,  18,   1,0.17866, 140.1151
152108,'鲁岗嵛站',   1.0000,1,   7,  18,   1,0.17919, 140.1333
152109,'鲁钢城站',   1.0000,1,   7,  18,   1,0.89425, 107.5683
152110,'鲁钢城站', 230.0000,1,   7,  18,   1,0.90616, 109.6522
152111,'鲁钢城站',   1.0000,1,   7,  18,   1,0.89452, 107.5929
152112,'鲁钢城站',  38.5000,1,   7,  18,   1,0.89828, 107.5936
152113,'鲁钢城站',   1.0000,1,   7,  18,   1,0.89477, 107.6352
152114,'鲁高密站',   1.0000,1,   7,  18,   1,0.67332, 112.9927
152115,'鲁高密站', 230.0000,1,   7,  18,   1,0.73765, 119.0873
152116,'鲁高密站',   1.0000,1,   7,  18,   1,0.67422, 112.9464
152117,'鲁高密站',  38.5000,1,   7,  18,   1,0.67927, 112.9603
152118,'鲁高新站',  10.5000,1,   7,  18,   1,0.90393, 105.4898
152119,'鲁高新站',   1.0000,1,   7,  18,   1,0.90450, 105.5719
152120,'鲁高新站', 230.0000,1,   7,  18,   1,0.94417, 110.9567
152121,'鲁高新站',   1.0000,1,   7,  18,   1,0.90333, 105.4013
152122,'鲁高余站', 230.0000,1,   7,  18,   1,0.95540, 104.8526
152123,'鲁高余站',   1.0000,1,   7,  18,   1,0.93722, 102.0209
152124,'鲁高余站',  38.5000,1,   7,  18,   1,0.94214, 102.0115
152125,'鲁高余站',   1.0000,1,   7,  18,   1,0.93722, 102.0190
152126,'鲁耿庄站',   1.0000,1,   7,  18,   1,0.87650,  32.4108
152127,'鲁耿庄站', 230.0000,1,   7,  18,   1,0.89418,  38.9380
152128,'鲁耿庄站',   1.0000,1,   7,  18,   1,0.87763,  32.5741
152129,'鲁耿庄站',  38.5000,1,   7,  18,   1,0.89945,  32.4446
152130,'鲁古柳站',   1.0000,1,   7,  18,   1,0.38752, 123.7241
152131,'鲁古柳站', 230.0000,1,   7,  18,   1,0.45557, 128.8981
152132,'鲁古柳站',   1.0000,1,   7,  18,   1,0.38728, 123.7250
152133,'鲁古柳站',  38.5000,1,   7,  18,   1,0.39051, 123.7138
152134,'鲁官路站',   1.0000,1,   7,  18,   1,0.67343, 113.1182
152135,'鲁官路站', 230.0000,1,   7,  18,   1,0.72998, 118.7438
152137,'鲁官路站',  38.5000,1,   7,  18,   1,0.67343, 113.1182
152141,'鲁光岳站',   1.0000,1,   7,  18,   1,0.91193,  42.0087
152142,'鲁光岳站', 230.0000,1,   7,  18,   1,0.92769,  43.8055
152143,'鲁光岳站',   1.0000,1,   7,  18,   1,0.91193,  42.0087
152144,'鲁光岳站',  38.5000,1,   7,  18,   1,0.91193,  42.0087
152147,'鲁光州站', 230.0000,1,   7,  18,   1,0.45607, 129.4319
152154,'鲁光州站', 525.0000,1,   7,  18,   1,0.68327, 118.1611
152155,'鲁广利站',   1.0000,1,   7,  18,   1,0.83230,  90.0978
152156,'鲁广利站', 230.0000,1,   7,  18,   1,0.84589,  91.6433
152157,'鲁广利站',   1.0000,1,   7,  18,   1,0.83230,  90.0978
152158,'鲁广利站',  38.5000,1,   7,  18,   1,0.83230,  90.0978
152159,'鲁广源站',   1.0000,1,   7,  18,   1,0.63801, 112.4006
152160,'鲁广源站', 230.0000,1,   7,  18,   1,0.68058, 117.2108
152161,'鲁广源站',   1.0000,1,   7,  18,   1,0.63764, 112.3350
152162,'鲁广源站',  38.5000,1,   7,  18,   1,0.64397, 112.3531
152163,'鲁郭集站',   1.0000,1,   7,  18,   1,0.88470,  87.8802
152164,'鲁郭集站', 230.0000,1,   7,  18,   1,0.90170,  91.7070
152165,'鲁郭集站',   1.0000,1,   7,  18,   1,0.88517,  87.8817
152166,'鲁郭集站',  38.5000,1,   7,  18,   1,0.89510,  87.8665
152167,'鲁果里站',   1.0000,1,   7,  18,   1,0.83834,  78.8407
152168,'鲁果里站', 230.0000,1,   7,  18,   1,0.87335,  84.0290
152169,'鲁果里站',  38.5000,1,   7,  18,   1,0.84438,  78.8326
152170,'鲁海发站',  10.5000,1,   7,  18,   1,0.44991, 124.2236
152171,'鲁海发站',   1.0000,1,   7,  18,   1,0.44927, 124.2782
152172,'鲁海发站', 230.0000,1,   7,  18,   1,0.48545, 127.2529
152173,'鲁海发站',   1.0000,1,   7,  18,   1,0.44829, 124.2183
152174,'鲁海河站',   1.0000,1,   7,  18,   1,0.75711, 116.3201
152175,'鲁海河站', 230.0000,1,   7,  18,   1,0.77918, 119.7296
152176,'鲁海河站',   1.0000,1,   7,  18,   1,0.75711, 116.3201
152177,'鲁海河站',  38.5000,1,   7,  18,   1,0.76247, 116.3111
152178,'鲁寒亭站',  10.5000,1,   7,  18,   1,0.83347, 105.4894
152179,'鲁寒亭站',   1.0000,1,   7,  18,   1,0.83391, 105.5229
152180,'鲁寒亭站', 230.0000,1,   7,  18,   1,0.86040, 108.4428
152181,'鲁寒亭站',   1.0000,1,   7,  18,   1,0.83308, 105.4597
152182,'鲁韩仓站',   1.0000,1,   7,  18,   1,0.84568,  63.1615
152183,'鲁韩仓站', 230.0000,1,   7,  18,   1,0.88165,  68.3776
152184,'鲁韩仓站',   1.0000,1,   7,  18,   1,0.84568,  63.1615
152185,'鲁韩仓站',  38.5000,1,   7,  18,   1,0.84568,  63.1615
152186,'鲁菏泽厂',   6.3000,1,   7,  18,   1,0.94477, 102.7375
152187,'鲁菏泽厂',   6.3000,1,   7,  18,   1,0.94477, 102.7375
152188,'鲁菏泽厂',   6.3000,1,   7,  18,   1,0.94477, 102.7375
152189,'鲁菏泽厂',   6.3000,1,   7,  18,   1,0.94477, 102.7375
152190,'鲁菏泽厂',   6.3000,1,   7,  18,   1,0.94477, 102.7375
152191,'鲁菏泽厂',  13.8000,2,   7,  18,   1,0.96806, 105.1926
152192,'鲁菏泽厂',   1.0000,1,   7,  18,   1,0.96920, 105.4688
152193,'鲁菏泽厂', 230.0000,1,   7,  18,   1,0.94396, 103.1477
152194,'鲁菏泽厂',  13.8000,2,   7,  18,   1,0.96801, 105.2044
152195,'鲁菏泽厂',   1.0000,1,   7,  18,   1,0.96942, 105.5035
152196,'鲁菏泽厂',  20.0000,2,   7,  18,   1,1.00000, 109.4163
152197,'鲁菏泽厂',  20.0000,2,   7,  18,   1,0.93604, 102.6808
152198,'鲁菏泽厂',  20.0000,2,   7,  18,   1,1.00000, 111.1599
152199,'鲁菏泽厂',   6.3000,1,   7,  18,   1,0.94477, 102.7375
152200,'鲁菏泽厂',  20.0000,2,   7,  18,   1,0.93491, 102.6158
152201,'鲁恒顺站', 115.0000,1,   7,  18,   1,0.25233, 145.8319
152202,'鲁恒顺站',   1.0000,1,   7,  18,   1,0.25194, 145.6454
152203,'鲁恒顺站', 230.0000,1,   7,  18,   1,0.25534, 150.6975
152204,'鲁恒顺站',   1.0000,1,   7,  18,   1,0.25188, 145.6120
152205,'鲁恒顺站',  38.5000,1,   7,  18,   1,0.25828, 145.6363
152206,'鲁恒顺站',   1.0000,1,   7,  18,   1,0.25195, 145.6512
152207,'鲁红庙站',   1.0000,1,   7,  18,   1,0.92911,  96.4180
152208,'鲁红庙站', 230.0000,1,   7,  18,   1,0.93214, 100.2786
152209,'鲁红庙站',   1.0000,1,   7,  18,   1,0.92850,  96.3595
152210,'鲁红庙站',  38.5000,1,   7,  18,   1,0.94410,  96.3885
152211,'鲁宏图站',   1.0000,1,   7,  18,   1,0.80850, 110.5787
152212,'鲁宏图站', 230.0000,1,   7,  18,   1,0.83694, 113.5695
152213,'鲁宏图站',  38.5000,1,   7,  18,   1,0.80850, 110.5787
152215,'鲁后村站', 230.0000,1,   7,  18,   1,0.90391, 127.9050
152216,'鲁后村站',  38.5000,1,   7,  18,   1,0.88743, 125.9469
152217,'鲁后村站',   1.0000,1,   7,  18,   1,0.88743, 125.9469
152218,'鲁虎山站',   1.0000,1,   7,  18,   1,0.61399, 112.0696
152219,'鲁虎山站', 230.0000,1,   7,  18,   1,0.64451, 116.2007
152220,'鲁虎山站',   1.0000,1,   7,  18,   1,0.61444, 112.1426
152221,'鲁虎山站',  38.5000,1,   7,  18,   1,0.62251, 112.1051
152222,'鲁虎山站',   1.0000,1,   7,  18,   1,0.61323, 112.1207
152224,'鲁华德厂',   6.3000,1,   7,  18,   1,0.91767,  72.9344
152225,'鲁华德厂',   6.3000,1,   7,  18,   1,0.91767,  72.9344
152226,'鲁华德厂',   6.3000,1,   7,  18,   1,0.91767,  72.9344
152227,'鲁华德厂',   6.3000,1,   7,  18,   1,0.91767,  72.9344
152228,'鲁华德厂',   6.3000,1,   7,  18,   1,0.91767,  72.9344
152229,'鲁华德厂',   6.3000,1,   7,  18,   1,0.91767,  72.9344
152230,'鲁华德厂',  20.0000,2,   7,  18,   1,0.91767,  72.9344
152231,'鲁华德厂', 230.0000,1,   7,  18,   1,0.91767,  72.9344
152232,'鲁华德厂',  20.0000,2,   7,  18,   1,0.91767,  72.9344
152233,'鲁华德厂',  38.5000,1,   7,  18,   1,0.91752,  72.6551
152234,'鲁华德厂',  20.0000,2,   7,  18,   1,1.00000,  79.3985
152235,'鲁华德厂',  20.0000,2,   7,  18,   1,1.00000,  83.8388
152241,'鲁华德厂', 525.0000,1,   7,  18,   1,0.93082,  76.4388
152242,'鲁华德厂',  23.0000,2,   7,  18,   1,1.00000,  83.1053
152243,'鲁华德厂',   6.3000,1,   7,  18,   1,0.91767,  72.9344
152244,'鲁华德厂',  23.0000,2,   7,  18,   1,0.92456,  76.0653
152245,'鲁华德厂',   1.0000,1,   7,  18,   1,0.91752,  72.6551
152249,'鲁华宇厂',   1.0000,1,   7,  18,   1,0.89476,  40.4962
152250,'鲁华宇厂',   6.3000,1,   7,  18,   1,0.89476,  40.4962
152251,'鲁华宇厂',  13.8000,2,   7,  18,   1,0.95413,  49.3787
152252,'鲁华宇厂', 230.0000,1,   7,  18,   1,0.89476,  40.4962
152253,'鲁华宇厂',  13.8000,2,   7,  18,   1,0.95420,  49.3856
152254,'鲁华宇厂',  13.8000,2,   7,  18,   1,0.88311,  39.6034
152256,'鲁华宇厂',   6.3000,1,   7,  18,   1,0.89476,  40.4962
152258,'鲁滨州站', 525.0000,1,   7,  18,   1,0.89654,  97.1920
152259,'鲁化工站', 230.0000,1,   7,  18,   1,0.87096,  83.5809
152260,'鲁化工站',   1.0000,1,   7,  18,   1,0.86083,  81.0983
152261,'鲁化工站',  38.5000,1,   7,  18,   1,0.86622,  81.0859
152262,'鲁化工站',   1.0000,1,   7,  18,   1,0.86079,  81.0915
152263,'鲁桓台站',   1.0000,1,   7,  18,   1,0.81591,  77.2297
152264,'鲁桓台站', 230.0000,1,   7,  18,   1,0.86783,  84.0895
152265,'鲁桓台站',   1.0000,1,   7,  18,   1,0.81771,  77.1938
152266,'鲁桓台站',  38.5000,1,   7,  18,   1,0.82744,  77.1937
152267,'鲁黄埠岭',   1.0000,1,   7,  18,   1,0.59052, 111.4343
152268,'鲁黄埠岭', 230.0000,1,   7,  18,   1,0.64754, 117.0298
152269,'鲁黄埠岭',   1.0000,1,   7,  18,   1,0.59009, 111.3904
152270,'鲁黄埠岭',  38.5000,1,   7,  18,   1,0.60566, 111.3861
152271,'鲁黄岛厂',   6.3000,1,   7,  18,   1,0.79294, 118.2787
152272,'鲁黄岛厂',   1.0000,1,   7,  18,   1,0.79319, 118.3100
152273,'鲁黄岛厂',   6.3000,1,   7,  18,   1,0.79319, 118.3100
152274,'鲁黄岛厂',   1.0000,1,   7,  18,   1,0.81609, 121.0366
152275,'鲁黄岛厂',   6.3000,1,   7,  18,   1,0.81609, 121.0366
152276,'鲁黄岛厂',  13.8000,1,   7,  18,   1,0.80089, 119.2885
152277,'鲁黄岛厂',   1.0000,1,   7,  18,   1,0.80089, 119.2885
152278,'鲁黄岛厂', 230.0000,1,   7,  18,   1,0.81536, 121.0236
152279,'鲁黄岛厂',  13.8000,1,   7,  18,   1,0.80109, 119.3188
152280,'鲁黄岛厂',   1.0000,1,   7,  18,   1,0.80109, 119.3188
152281,'鲁黄岛厂',  15.0000,2,   7,  18,   1,1.00000, 127.9258
152282,'鲁黄岛厂',  15.0000,2,   7,  18,   1,1.00000, 127.9258
152283,'鲁黄岛厂',  20.0000,2,   7,  18,   1,1.00000, 139.4198
152284,'鲁黄岛厂', 230.0000,1,   7,  18,   1,0.89402, 131.2878
152285,'鲁黄岛厂',   6.3000,1,   7,  18,   1,0.80725, 120.0425
152286,'鲁黄岛厂',  20.0000,2,   7,  18,   1,1.00000, 138.7301
152287,'鲁黄岛厂', 230.0000,1,   7,  18,   1,0.88968, 130.5695
152288,'鲁黄台厂',   6.3000,1,   7,  18,   1,0.88153,  67.9568
152289,'鲁黄台厂',   6.3000,1,   7,  18,   1,0.88153,  67.9568
152290,'鲁黄台厂',  20.0000,2,   7,  18,   1,0.88153,  67.9568
152291,'鲁黄台厂', 230.0000,1,   7,  18,   1,0.88153,  67.9568
152294,'鲁黄台厂',   6.3000,1,   7,  18,   1,0.88153,  67.9568
152297,'鲁黄台厂',  18.0000,2,   7,  18,   1,0.93775,  75.6671
152298,'鲁黄台厂',  18.0000,2,   7,  18,   1,0.87448,  67.5161
152299,'鲁黄台厂',  18.0000,2,   7,  18,   1,0.88153,  67.9568
152300,'鲁汇河站',   1.0000,1,   7,  18,   1,0.89299, 104.4719
152301,'鲁汇河站', 230.0000,1,   7,  18,   1,0.90087, 105.4911
152302,'鲁汇河站',   1.0000,1,   7,  18,   1,0.89289, 104.4584
152303,'鲁汇河站',  38.5000,1,   7,  18,   1,0.89294, 104.4652
152304,'鲁汇鑫站',   1.0000,1,   7,  18,   1,0.88340,  37.3445
152305,'鲁汇鑫站', 230.0000,1,   7,  18,   1,0.89566,  39.9425
152306,'鲁汇鑫站',   1.0000,1,   7,  18,   1,0.88314,  37.2915
152307,'鲁汇鑫站',  38.5000,1,   7,  18,   1,0.88740,  37.3112
152308,'鲁惠沣站',  11.0000,1,   7,  18,   1,0.85879,  94.8412
152309,'鲁惠沣站',   1.0000,1,   7,  18,   1,0.84237,  94.8492
152310,'鲁惠沣站', 230.0000,1,   7,  18,   1,0.86639,  98.8605
152311,'鲁即墨站',   1.0000,1,   7,  18,   1,0.62060, 113.0248
152312,'鲁即墨站', 230.0000,1,   7,  18,   1,0.66248, 116.7672
152313,'鲁即墨站',   1.0000,1,   7,  18,   1,0.62295, 113.2367
152314,'鲁即墨站',  38.5000,1,   7,  18,   1,0.62468, 113.1285
152315,'鲁济南站',   1.0000,1,   7,  18,   1,0.88852,  68.7190
152316,'鲁济南站', 230.0000,1,   7,  18,   1,0.88927,  69.3650
152317,'鲁济南站',  38.5000,1,   7,  18,   1,0.88852,  68.7190
152318,'鲁济南站',  38.5000,1,   7,  18,   1,0.96202,  68.6618
152319,'鲁济南站',   1.0000,1,   7,  18,   1,0.88506,  68.7249
152325,'鲁济南站', 525.0000,1,   7,  18,   1,0.90173,  75.2853
152326,'鲁济宁厂',  10.5000,2,   7,  18,   1,1.00000, 123.2963
152328,'鲁济宁厂', 230.0000,1,   7,  18,   1,0.95130, 111.7127
152329,'鲁济宁厂',  10.5000,2,   7,  18,   1,1.00000, 123.2963
152334,'鲁济宁厂',  13.8000,2,   7,  18,   1,0.97249, 113.6320
152335,'鲁济宁厂',   1.0000,1,   7,  18,   1,0.97547, 114.0346
152336,'鲁济宁厂',  13.8000,2,   7,  18,   1,0.94474, 111.2866
152339,'鲁嘉祥厂',  22.0000,2,   7,  18,   1,0.99000, 113.1873
152340,'鲁嘉祥厂',  22.0000,2,   7,  18,   1,0.94300, 104.6392
152341,'鲁嘉祥厂', 525.0000,1,   7,  18,   1,0.95160, 105.1395
152342,'鲁嘉祥站',   1.0000,1,   7,  18,   1,0.90172, 102.3777
152343,'鲁嘉祥站', 230.0000,1,   7,  18,   1,0.94164, 108.0983
152344,'鲁嘉祥站',  38.5000,1,   7,  18,   1,0.90172, 102.3777
152345,'鲁贾庄站', 230.0000,1,   7,  18,   1,0.85478, 107.7120
152346,'鲁贾庄站',   1.0000,1,   7,  18,   1,0.80973, 102.0880
152347,'鲁贾庄站',  38.5000,1,   7,  18,   1,0.81422, 102.1246
152348,'鲁贾庄站',   1.0000,1,   7,  18,   1,0.81053, 102.1713
152349,'鲁建国站',   1.0000,1,   7,  18,   1,0.91718, 116.7983
152350,'鲁建国站', 230.0000,1,   7,  18,   1,0.94002, 119.8566
152351,'鲁建国站',   1.0000,1,   7,  18,   1,0.91668, 116.7319
152352,'鲁建国站',  38.5000,1,   7,  18,   1,0.91693, 116.7655
152353,'鲁江泉热',  13.8000,2,   7,  18,   1,0.94571, 122.7946
152354,'鲁江泉热',   1.0000,1,   7,  18,   1,0.94924, 123.3497
152355,'鲁江泉热', 230.0000,1,   7,  18,   1,0.90369, 117.9400
152356,'鲁江泉热',  13.8000,2,   7,  18,   1,0.94571, 122.7946
152357,'鲁江泉热',   1.0000,1,   7,  18,   1,0.94924, 123.3497
152358,'鲁江泉热',  38.5000,1,   7,  18,   1,0.93282, 121.2923
152359,'鲁江泉热',  13.8000,2,   7,  18,   1,0.91827, 119.8399
152360,'鲁江泉热',   1.0000,1,   7,  18,   1,0.91791, 119.8077
152361,'鲁蒋庄站',   1.0000,1,   7,  18,   1,0.87955,  34.3859
152362,'鲁蒋庄站', 230.0000,1,   7,  18,   1,0.90124,  40.2129
152363,'鲁蒋庄站',   1.0000,1,   7,  18,   1,0.88078,  34.5185
152364,'鲁蒋庄站',  38.5000,1,   7,  18,   1,0.89293,  34.4286
152365,'鲁胶州站',   1.0000,1,   7,  18,   1,0.67339, 113.7635
152366,'鲁胶州站', 230.0000,1,   7,  18,   1,0.71728, 118.2305
152367,'鲁胶州站',   1.0000,1,   7,  18,   1,0.67230, 113.6355
152368,'鲁胶州站',  38.5000,1,   7,  18,   1,0.67450, 113.6966
152369,'鲁接庄站',   1.0000,1,   7,  18,   1,0.91846, 109.3390
152370,'鲁接庄站', 230.0000,1,   7,  18,   1,0.94597, 113.3021
152371,'鲁接庄站',   1.0000,1,   7,  18,   1,0.91937, 109.5750
152372,'鲁接庄站',  38.5000,1,   7,  18,   1,0.91913, 109.5129
152373,'鲁金岭站', 230.0000,1,   7,  18,   1,0.86998,  83.3530
152374,'鲁金岭站',  38.5000,1,   7,  18,   1,0.84018,  78.0867
152375,'鲁金岭站',   1.0000,1,   7,  18,   1,0.83480,  78.0949
152376,'鲁金阳站',   1.0000,1,   7,  18,   1,0.92180,  98.6381
152377,'鲁金阳站', 230.0000,1,   7,  18,   1,0.94469, 102.6098
152378,'鲁金阳站',   1.0000,1,   7,  18,   1,0.92205,  98.7017
152379,'鲁金阳站',  38.5000,1,   7,  18,   1,0.92803,  98.6644
152380,'鲁景阳站',   1.0000,1,   7,  18,   1,0.89176,  37.3134
152381,'鲁景阳站', 230.0000,1,   7,  18,   1,0.90802,  41.1429
152382,'鲁景阳站',  38.5000,1,   7,  18,   1,0.90148,  37.3327
152383,'鲁九分厂',   1.0000,1,   7,  18,   1,0.82600,  83.7318
152384,'鲁九分厂', 230.0000,1,   7,  18,   1,0.84747,  88.5569
152385,'鲁九分厂',   1.0000,1,   7,  18,   1,0.82694,  83.8543
152386,'鲁九分厂',  38.5000,1,   7,  18,   1,0.83863,  83.6634
152387,'鲁九分厂',   1.0000,1,   7,  18,   1,0.82243,  83.4687
152388,'鲁九莲站',   1.0000,1,   7,  18,   1,0.85635, 115.7997
152389,'鲁九莲站', 230.0000,1,   7,  18,   1,0.88433, 121.3635
152390,'鲁九莲站',   1.0000,1,   7,  18,   1,0.85526, 115.6412
152391,'鲁九莲站',  38.5000,1,   7,  18,   1,0.86722, 115.6993
152392,'鲁莒州站',   1.0000,1,   7,  18,   1,0.83146, 114.2485
152393,'鲁莒州站', 230.0000,1,   7,  18,   1,0.85189, 119.3678
152394,'鲁莒州站',   1.0000,1,   7,  18,   1,0.83169, 114.3374
152395,'鲁莒州站',  38.5000,1,   7,  18,   1,0.84241, 114.2786
152396,'鲁君山站',   1.0000,1,   7,  18,   1,0.92370, 118.3982
152397,'鲁君山站', 230.0000,1,   7,  18,   1,0.93820, 120.1688