       1,   'GENCLS',    '1',        4,        2 /
       4,   'GENCLS',    '1',     1000,        0 /
