      1 'GENROU' 1     10.200      0.30000E-01   1.5000      0.40000E-01
          4.2000       2.0000      1.0           1.2         0.7
          0.6          0.05000      0.04       0.0000       0.0000    /
      4 'GENCLS' 1     10.000       2.0000    /
      0 'IEELAL' *     1.0000       0.0000       0.0000       1.0000
          0.0000       0.0000       2.0000      -1.8000       2.0000
          1.0000       0.0000       2.0000       1.0000       0.0000    /
