      1 'GENROU' 1     10.200      0.30000E-01   1.5000      0.40000E-01
          4.2000       2.0000      1.0           1.2         0.7
          0.6          0.05000      0.04       0.0000       0.0000    /
      1 'IEEET1' 1    0.10000E-01   20.000      0.20000E-01   10.000    
         -10.000       1.0000       1.5000      0.40000E-01  0.70000    
          0.0000       1.6500      0.12000       2.2000      0.54000    /
      4 'GENCLS' 1    10.000       2.0000    /
      0 'IEELAL' *    1.0000       0.0000      0.00000      1.0000    
          0.0000      0.00000       2.0000      -1.8000       2.0000    
          1.0000       0.0000       2.0000       1.0000       0.0000    /
