      1 'GENCLS' 1    4.0000       2.0000      /
      4 'GENCLS' 1    1000.0       0.0000    /
      0 'IEELAL' *    1.0000       0.0000      0.00000      1.0000    
          0.0000      0.00000       2.0000      -1.8000       2.0000    
          1.0000       0.0000       2.0000       1.0000       0.0000    /
